3QTX
     RDKit          3D

 41 43  0  0  1  0  0  0  0  0999 V2000
   65.9965  153.9839  -50.5061 N   0  0  0  0  0  0  0  0  0  0  0  0
   67.8006  153.1025  -51.7174 N   0  0  0  0  0  0  0  0  0  0  0  0
   64.3207  154.5778  -48.9911 N   0  0  0  0  0  0  0  0  0  0  0  0
   70.9605  148.8118  -45.9184 N   0  0  0  0  0  0  0  0  0  0  0  0
   61.6391  152.8686  -43.1870 N   0  0  0  0  0  0  0  0  0  0  0  0
   67.1144  153.1823  -50.5800 C   0  0  0  0  0  0  0  0  0  0  0  0
   67.4362  152.4708  -49.4196 C   0  0  0  0  0  0  0  0  0  0  0  0
   68.5088  151.5221  -49.3152 C   0  0  0  0  0  0  0  0  0  0  0  0
   68.5353  150.5352  -48.1720 C   0  0  0  0  0  0  0  0  0  0  0  0
   69.7418  150.1542  -47.6017 C   0  0  0  0  0  0  0  0  0  0  0  0
   69.7110  149.2156  -46.5808 C   0  0  0  0  0  0  0  0  0  0  0  0
   68.5426  148.6383  -46.1262 C   0  0  0  0  0  0  0  0  0  0  0  0
   67.3487  149.0107  -46.7082 C   0  0  0  0  0  0  0  0  0  0  0  0
   67.3538  149.9414  -47.7276 C   0  0  0  0  0  0  0  0  0  0  0  0
   65.4370  153.8833  -49.3231 C   0  0  0  0  0  0  0  0  0  0  0  0
   63.4817  154.3214  -47.8974 C   0  0  0  0  0  0  0  0  0  0  0  0
   62.7958  155.3856  -47.3168 C   0  0  0  0  0  0  0  0  0  0  0  0
   61.9725  155.1763  -46.2266 C   0  0  0  0  0  0  0  0  0  0  0  0
   61.8382  153.8985  -45.7118 C   0  0  0  0  0  0  0  0  0  0  0  0
   62.4829  152.8201  -46.3052 C   0  0  0  0  0  0  0  0  0  0  0  0
   63.2902  153.0280  -47.4053 C   0  0  0  0  0  0  0  0  0  0  0  0
   69.3938  151.4556  -50.1716 O   0  0  0  0  0  0  0  0  0  0  0  0
   71.9893  149.4135  -46.1809 O   0  0  0  0  0  0  0  0  0  0  0  0
   70.9206  147.8977  -45.1115 O   0  0  0  0  0  0  0  0  0  0  0  0
   59.8036  152.6177  -44.7316 O   0  0  0  0  0  0  0  0  0  0  0  0
   60.2919  154.8743  -43.8772 O   0  0  0  0  0  0  0  0  0  0  0  0
   66.2496  152.8395  -48.1955 S   0  0  0  0  0  0  0  0  0  0  0  0
   60.7811  153.6026  -44.3366 S   0  0  0  0  0  0  0  0  0  0  0  0
   67.5313  153.6636  -52.5128 H   0  0  0  0  0  0  0  0  0  0  0  0
   68.6383  152.5419  -51.6955 H   0  0  0  0  0  0  0  0  0  0  0  0
   70.6805  150.5648  -47.9348 H   0  0  0  0  0  0  0  0  0  0  0  0
   68.5890  147.8919  -45.3533 H   0  0  0  0  0  0  0  0  0  0  0  0
   66.4200  148.5576  -46.3994 H   0  0  0  0  0  0  0  0  0  0  0  0
   66.4212  150.1872  -48.2069 H   0  0  0  0  0  0  0  0  0  0  0  0
   64.0254  155.3402  -49.5972 H   0  0  0  0  0  0  0  0  0  0  0  0
   62.8826  156.3662  -47.7508 H   0  0  0  0  0  0  0  0  0  0  0  0
   61.4224  155.9926  -45.7853 H   0  0  0  0  0  0  0  0  0  0  0  0
   62.3473  151.8258  -45.9052 H   0  0  0  0  0  0  0  0  0  0  0  0
   63.7446  152.1856  -47.8971 H   0  0  0  0  0  0  0  0  0  0  0  0
   61.7859  151.8713  -43.3933 H   0  0  0  0  0  0  0  0  0  0  0  0
   62.4520  153.3648  -42.8564 H   0  0  0  0  0  0  0  0  0  0  0  0
  1  6  1  0
  1 15  2  0
  2  6  1  0
  2 29  1  0
  2 30  1  0
  3 15  1  0
  3 16  1  0
  3 35  1  0
  4 11  1  0
  4 23  2  0
  4 24  1  0
  5 28  1  0
  5 40  1  0
  5 41  1  0
  6  7  2  0
  7 27  1  0
  8  7  1  0
  8  9  1  0
  8 22  2  0
  9 10  2  0
  9 14  1  0
 10 11  1  0
 10 31  1  0
 11 12  2  0
 12 13  1  0
 12 32  1  0
 13 14  2  0
 13 33  1  0
 14 34  1  0
 15 27  1  0
 16 17  2  0
 16 21  1  0
 17 18  1  0
 17 36  1  0
 18 19  2  0
 18 37  1  0
 19 20  1  0
 19 28  1  0
 20 21  2  0
 20 38  1  0
 21 39  1  0
 25 28  2  0
 26 28  2  0
M  CHG  2   4   1  24  -1
M  END
>  <lm5_entropy_jk>  (1) 
24.48849005177307

>  <number_of_rotatable_bonds>  (1) 
6

>  <IC50_NM>  (1) 
70

>  <charge>  (1) 
0

$$$$
