3RAL
     RDKit          3D

 43 45  0  0  1  0  0  0  0  0999 V2000
   65.6450  154.5001  -50.7232 N   0  0  0  0  0  0  0  0  0  0  0  0
   67.4461  153.8546  -52.0840 N   0  0  0  0  0  0  0  0  0  0  0  0
   64.0281  154.8707  -49.0961 N   0  0  0  0  0  0  0  0  0  0  0  0
   61.4251  153.3634  -43.1616 N   0  0  0  0  0  0  0  0  0  0  0  0
   68.6954  149.0037  -46.9725 C   0  0  0  0  0  0  0  0  0  0  0  0
   69.7930  149.7893  -47.2894 C   0  0  0  0  0  0  0  0  0  0  0  0
   69.6961  150.8091  -48.2299 C   0  0  0  0  0  0  0  0  0  0  0  0
   67.3663  150.2789  -48.5118 C   0  0  0  0  0  0  0  0  0  0  0  0
   67.4815  149.2555  -47.5929 C   0  0  0  0  0  0  0  0  0  0  0  0
   71.1090  148.5316  -45.8116 C   0  0  0  0  0  0  0  0  0  0  0  0
   68.4749  151.0617  -48.8280 C   0  0  0  0  0  0  0  0  0  0  0  0
   68.3646  152.1484  -49.8568 C   0  0  0  0  0  0  0  0  0  0  0  0
   67.2185  153.0033  -49.8447 C   0  0  0  0  0  0  0  0  0  0  0  0
   66.7961  153.7805  -50.9214 C   0  0  0  0  0  0  0  0  0  0  0  0
   65.1507  154.2605  -49.5258 C   0  0  0  0  0  0  0  0  0  0  0  0
   63.3342  154.6771  -47.8960 C   0  0  0  0  0  0  0  0  0  0  0  0
   63.3210  153.4680  -47.1921 C   0  0  0  0  0  0  0  0  0  0  0  0
   62.5646  153.3547  -46.0419 C   0  0  0  0  0  0  0  0  0  0  0  0
   61.8336  154.4454  -45.5886 C   0  0  0  0  0  0  0  0  0  0  0  0
   61.8086  155.6357  -46.2934 C   0  0  0  0  0  0  0  0  0  0  0  0
   62.5657  155.7478  -47.4410 C   0  0  0  0  0  0  0  0  0  0  0  0
   59.6180  153.3984  -44.8926 O   0  0  0  0  0  0  0  0  0  0  0  0
   60.2695  155.4741  -43.7448 O   0  0  0  0  0  0  0  0  0  0  0  0
   69.2466  152.2736  -50.7103 O   0  0  0  0  0  0  0  0  0  0  0  0
   71.0194  149.6199  -46.7063 O   0  0  0  0  0  0  0  0  0  0  0  0
   66.0730  153.1706  -48.5423 S   0  0  0  0  0  0  0  0  0  0  0  0
   60.6650  154.2006  -44.3115 S   0  0  0  0  0  0  0  0  0  0  0  0
   68.7566  148.1814  -46.2814 H   0  0  0  0  0  0  0  0  0  0  0  0
   67.0169  154.2654  -52.9025 H   0  0  0  0  0  0  0  0  0  0  0  0
   68.2374  153.2363  -52.1741 H   0  0  0  0  0  0  0  0  0  0  0  0
   70.5695  151.3919  -48.4821 H   0  0  0  0  0  0  0  0  0  0  0  0
   63.5962  155.5405  -49.7386 H   0  0  0  0  0  0  0  0  0  0  0  0
   66.4212  150.4450  -48.9988 H   0  0  0  0  0  0  0  0  0  0  0  0
   61.2666  152.3557  -43.2453 H   0  0  0  0  0  0  0  0  0  0  0  0
   61.3233  153.7642  -42.2454 H   0  0  0  0  0  0  0  0  0  0  0  0
   66.6229  148.6537  -47.3426 H   0  0  0  0  0  0  0  0  0  0  0  0
   72.1418  148.4648  -45.5086 H   0  0  0  0  0  0  0  0  0  0  0  0
   70.8354  147.5891  -46.2904 H   0  0  0  0  0  0  0  0  0  0  0  0
   70.4778  148.6905  -44.9329 H   0  0  0  0  0  0  0  0  0  0  0  0
   63.8310  152.6004  -47.5721 H   0  0  0  0  0  0  0  0  0  0  0  0
   62.4949  152.4083  -45.5248 H   0  0  0  0  0  0  0  0  0  0  0  0
   61.1683  156.4432  -45.9750 H   0  0  0  0  0  0  0  0  0  0  0  0
   62.5117  156.6370  -48.0437 H   0  0  0  0  0  0  0  0  0  0  0  0
  1 14  1  0
  1 15  2  0
  2 14  1  0
  2 29  1  0
  2 30  1  0
  3 15  1  0
  3 16  1  0
  3 32  1  0
  4 27  1  0
  4 34  1  0
  4 35  1  0
  5  6  2  0
  5  9  1  0
  5 28  1  0
  6  7  1  0
  6 25  1  0
  7 11  2  0
  7 31  1  0
  8  9  2  0
  8 11  1  0
  8 33  1  0
  9 36  1  0
 10 25  1  0
 10 37  1  0
 10 38  1  0
 10 39  1  0
 12 11  1  0
 12 13  1  0
 12 24  2  0
 13 14  2  0
 13 26  1  0
 15 26  1  0
 16 17  2  0
 16 21  1  0
 17 18  1  0
 17 40  1  0
 18 19  2  0
 18 41  1  0
 19 20  1  0
 19 27  1  0
 20 21  2  0
 20 42  1  0
 21 43  1  0
 22 27  2  0
 23 27  2  0
M  END
>  <lm5_entropy_jk>  (1) 
33.50945403317048

>  <number_of_rotatable_bonds>  (1) 
6

>  <IC50_NM>  (1) 
100

>  <charge>  (1) 
0

$$$$
