3QTU
     RDKit          3D

 44 46  0  0  0  0  0  0  0  0999 V2000
   65.8817  154.4674  -50.4396 N   0  0  0  0  0  0  0  0  0  0  0  0
   64.6509  154.9044  -48.5236 N   0  0  0  0  0  0  0  0  0  0  0  0
   67.2659  153.6673  -52.1561 N   0  0  0  0  0  0  0  0  0  0  0  0
   61.9027  152.6838  -42.7037 N   0  0  0  0  0  0  0  0  0  0  0  0
   70.3661  147.2169  -45.4995 N   0  0  0  0  0  0  0  0  0  0  0  0
   67.4867  152.8438  -49.9185 C   0  0  0  0  0  0  0  0  0  0  0  0
   66.8994  153.6610  -50.8815 C   0  0  0  0  0  0  0  0  0  0  0  0
   65.6318  154.2209  -49.1763 C   0  0  0  0  0  0  0  0  0  0  0  0
   63.9100  154.5455  -47.3847 C   0  0  0  0  0  0  0  0  0  0  0  0
   68.4630  151.8449  -50.1868 C   0  0  0  0  0  0  0  0  0  0  0  0
   68.8649  150.9456  -49.0554 C   0  0  0  0  0  0  0  0  0  0  0  0
   63.0253  155.4963  -46.8706 C   0  0  0  0  0  0  0  0  0  0  0  0
   62.2481  155.2210  -45.7634 C   0  0  0  0  0  0  0  0  0  0  0  0
   62.3225  153.9809  -45.1410 C   0  0  0  0  0  0  0  0  0  0  0  0
   63.1807  153.0161  -45.6530 C   0  0  0  0  0  0  0  0  0  0  0  0
   63.9720  153.2994  -46.7584 C   0  0  0  0  0  0  0  0  0  0  0  0
   70.2183  150.8353  -48.7854 C   0  0  0  0  0  0  0  0  0  0  0  0
   70.6352  150.1455  -47.6626 C   0  0  0  0  0  0  0  0  0  0  0  0
   69.7009  149.5561  -46.8332 C   0  0  0  0  0  0  0  0  0  0  0  0
   68.3512  149.5668  -47.1486 C   0  0  0  0  0  0  0  0  0  0  0  0
   67.9381  150.2685  -48.2648 C   0  0  0  0  0  0  0  0  0  0  0  0
   69.0158  151.7385  -51.2821 O   0  0  0  0  0  0  0  0  0  0  0  0
   60.0987  152.9195  -44.3375 O   0  0  0  0  0  0  0  0  0  0  0  0
   60.8980  154.9219  -43.1517 O   0  0  0  0  0  0  0  0  0  0  0  0
   71.5871  149.3064  -45.0912 O   0  0  0  0  0  0  0  0  0  0  0  0
   69.2140  149.0859  -44.3607 O   0  0  0  0  0  0  0  0  0  0  0  0
   66.6774  153.0961  -48.3982 S   0  0  0  0  0  0  0  0  0  0  0  0
   61.1927  153.6640  -43.7813 S   0  0  0  0  0  0  0  0  0  0  0  0
   70.2485  148.8214  -45.3117 S   0  0  0  0  0  0  0  0  0  0  0  0
   64.2101  155.5917  -49.1148 H   0  0  0  0  0  0  0  0  0  0  0  0
   66.8360  154.2822  -52.8244 H   0  0  0  0  0  0  0  0  0  0  0  0
   68.0332  153.0581  -52.3981 H   0  0  0  0  0  0  0  0  0  0  0  0
   62.0413  151.6953  -43.0604 H   0  0  0  0  0  0  0  0  0  0  0  0
   62.7196  153.0789  -42.2506 H   0  0  0  0  0  0  0  0  0  0  0  0
   71.1618  147.0166  -46.1151 H   0  0  0  0  0  0  0  0  0  0  0  0
   69.5307  146.7510  -45.8602 H   0  0  0  0  0  0  0  0  0  0  0  0
   62.9162  156.4498  -47.3626 H   0  0  0  0  0  0  0  0  0  0  0  0
   61.5603  155.9676  -45.3925 H   0  0  0  0  0  0  0  0  0  0  0  0
   63.2172  152.0309  -45.2041 H   0  0  0  0  0  0  0  0  0  0  0  0
   64.6134  152.5220  -47.1367 H   0  0  0  0  0  0  0  0  0  0  0  0
   70.9289  151.3022  -49.4498 H   0  0  0  0  0  0  0  0  0  0  0  0
   71.6735  150.0592  -47.4065 H   0  0  0  0  0  0  0  0  0  0  0  0
   67.6371  149.0519  -46.5231 H   0  0  0  0  0  0  0  0  0  0  0  0
   66.8890  150.2757  -48.5179 H   0  0  0  0  0  0  0  0  0  0  0  0
  1  8  2  0
  2  9  1  0
  2 30  1  0
  3  7  1  0
  3 31  1  0
  3 32  1  0
  4 33  1  0
  4 34  1  0
  5 29  1  0
  5 35  1  0
  5 36  1  0
  6 27  1  0
  7  1  1  0
  7  6  2  0
  8  2  1  0
  8 27  1  0
  9 12  2  0
  9 16  1  0
 10  6  1  0
 10 11  1  0
 11 17  2  0
 11 21  1  0
 12 13  1  0
 12 37  1  0
 13 14  2  0
 13 38  1  0
 14 28  1  0
 15 14  1  0
 15 39  1  0
 16 15  2  0
 16 40  1  0
 17 18  1  0
 17 41  1  0
 18 19  2  0
 18 42  1  0
 19 29  1  0
 20 19  1  0
 20 43  1  0
 21 20  2  0
 21 44  1  0
 22 10  2  0
 23 28  2  0
 28 24  2  0
 28  4  1  0
 29 25  2  0
 29 26  2  0
M  END
>  <lm5_entropy_jk>  (1) 
23.933690845995674

>  <number_of_rotatable_bonds>  (1) 
6

>  <IC50_NM>  (1) 
70

>  <charge>  (1) 
0

$$$$
