3QTQ
     RDKit          3D

 30 31  0  0  1  0  0  0  0  0999 V2000
   65.8694  154.4852  -50.4462 N   0  0  0  0  0  0  0  0  0  0  0  0
   67.3632  153.5809  -51.9866 N   0  0  0  0  0  0  0  0  0  0  0  0
   70.6076  149.7521  -47.7021 N   0  0  0  0  0  0  0  0  0  0  0  0
   64.6282  155.1539  -48.5928 N   0  0  0  0  0  0  0  0  0  0  0  0
   66.8989  153.6414  -50.7446 C   0  0  0  0  0  0  0  0  0  0  0  0
   67.3875  152.8573  -49.6883 C   0  0  0  0  0  0  0  0  0  0  0  0
   68.4895  151.9712  -49.8281 C   0  0  0  0  0  0  0  0  0  0  0  0
   68.8482  150.9507  -48.7814 C   0  0  0  0  0  0  0  0  0  0  0  0
   70.1898  150.7178  -48.5179 C   0  0  0  0  0  0  0  0  0  0  0  0
   69.6898  148.9643  -47.1336 C   0  0  0  0  0  0  0  0  0  0  0  0
   68.3289  149.1167  -47.3352 C   0  0  0  0  0  0  0  0  0  0  0  0
   67.9033  150.1375  -48.1694 C   0  0  0  0  0  0  0  0  0  0  0  0
   65.5418  154.3810  -49.1729 C   0  0  0  0  0  0  0  0  0  0  0  0
   64.1317  154.9638  -47.2457 C   0  0  0  0  0  0  0  0  0  0  0  0
   63.0303  153.9475  -47.1549 C   0  0  0  0  0  0  0  0  0  0  0  0
   62.9555  153.0355  -46.2021 C   0  0  0  0  0  0  0  0  0  0  0  0
   69.1884  151.9792  -50.8473 O   0  0  0  0  0  0  0  0  0  0  0  0
   66.4180  153.1729  -48.2675 S   0  0  0  0  0  0  0  0  0  0  0  0
   67.0279  154.2041  -52.7075 H   0  0  0  0  0  0  0  0  0  0  0  0
   68.1959  153.0248  -52.1064 H   0  0  0  0  0  0  0  0  0  0  0  0
   70.9444  151.3264  -49.0029 H   0  0  0  0  0  0  0  0  0  0  0  0
   70.0602  148.1615  -46.5086 H   0  0  0  0  0  0  0  0  0  0  0  0
   67.6256  148.4457  -46.8686 H   0  0  0  0  0  0  0  0  0  0  0  0
   66.8490  150.2737  -48.3709 H   0  0  0  0  0  0  0  0  0  0  0  0
   63.9919  155.6299  -49.2237 H   0  0  0  0  0  0  0  0  0  0  0  0
   63.7568  155.9315  -46.9126 H   0  0  0  0  0  0  0  0  0  0  0  0
   64.9491  154.6866  -46.5920 H   0  0  0  0  0  0  0  0  0  0  0  0
   62.1270  152.3505  -46.1352 H   0  0  0  0  0  0  0  0  0  0  0  0
   63.7162  152.9528  -45.4360 H   0  0  0  0  0  0  0  0  0  0  0  0
   62.2651  154.0330  -47.9153 H   0  0  0  0  0  0  0  0  0  0  0  0
  1  5  1  0
  1 13  2  0
  2  5  1  0
  2 19  1  0
  2 20  1  0
  3  9  2  0
  3 10  1  0
  4 13  1  0
  4 14  1  0
  4 25  1  0
  5  6  2  0
  6 18  1  0
  7  6  1  0
  7  8  1  0
  7 17  2  0
  8  9  1  0
  8 12  2  0
  9 21  1  0
 10 11  2  0
 10 22  1  0
 11 12  1  0
 11 23  1  0
 12 24  1  0
 13 18  1  0
 14 15  1  0
 14 26  1  0
 14 27  1  0
 15 16  2  0
 15 30  1  0
 16 28  1  0
 16 29  1  0
M  END
>  <lm5_entropy_jk>  (1) 
31.50116356131297

>  <number_of_rotatable_bonds>  (1) 
5

>  <IC50_NM>  (1) 
3100

>  <charge>  (1) 
0

$$$$
