3SQQ
     RDKit          3D

 42 44  0  0  0  0  0  0  0  0999 V2000
   65.9123  154.4468  -50.5094 N   0  0  0  0  0  0  0  0  0  0  0  0
   64.5982  154.9480  -48.6466 N   0  0  0  0  0  0  0  0  0  0  0  0
   67.4065  153.5935  -52.1232 N   0  0  0  0  0  0  0  0  0  0  0  0
   62.1177  152.8961  -42.8593 N   0  0  0  0  0  0  0  0  0  0  0  0
   67.4947  152.8222  -49.8579 C   0  0  0  0  0  0  0  0  0  0  0  0
   66.9477  153.6209  -50.8716 C   0  0  0  0  0  0  0  0  0  0  0  0
   65.6073  154.2466  -49.2492 C   0  0  0  0  0  0  0  0  0  0  0  0
   63.8819  154.6316  -47.4643 C   0  0  0  0  0  0  0  0  0  0  0  0
   68.3500  151.6886  -50.0690 C   0  0  0  0  0  0  0  0  0  0  0  0
   68.6165  150.7344  -48.9275 C   0  0  0  0  0  0  0  0  0  0  0  0
   69.9088  150.2434  -48.6881 C   0  0  0  0  0  0  0  0  0  0  0  0
   70.0981  149.3937  -47.6009 C   0  0  0  0  0  0  0  0  0  0  0  0
   69.0510  148.9908  -46.7883 C   0  0  0  0  0  0  0  0  0  0  0  0
   67.7658  149.4205  -47.0713 C   0  0  0  0  0  0  0  0  0  0  0  0
   67.5614  150.2817  -48.1349 C   0  0  0  0  0  0  0  0  0  0  0  0
   64.0308  153.4580  -46.7271 C   0  0  0  0  0  0  0  0  0  0  0  0
   63.2712  153.2413  -45.5867 C   0  0  0  0  0  0  0  0  0  0  0  0
   62.3382  154.1773  -45.1722 C   0  0  0  0  0  0  0  0  0  0  0  0
   62.1655  155.3401  -45.9084 C   0  0  0  0  0  0  0  0  0  0  0  0
   62.9336  155.5628  -47.0328 C   0  0  0  0  0  0  0  0  0  0  0  0
   71.0832  150.5985  -49.5604 C   0  0  0  0  0  0  0  0  0  0  0  0
   68.8544  151.4835  -51.1753 O   0  0  0  0  0  0  0  0  0  0  0  0
   60.8630  154.9960  -43.1189 O   0  0  0  0  0  0  0  0  0  0  0  0
   60.1346  153.0479  -44.4361 O   0  0  0  0  0  0  0  0  0  0  0  0
   66.6187  153.1466  -48.3946 S   0  0  0  0  0  0  0  0  0  0  0  0
   61.2067  153.8058  -43.8537 S   0  0  0  0  0  0  0  0  0  0  0  0
   64.0250  155.4639  -49.3136 H   0  0  0  0  0  0  0  0  0  0  0  0
   66.9936  154.1446  -52.8709 H   0  0  0  0  0  0  0  0  0  0  0  0
   68.1042  152.9012  -52.3436 H   0  0  0  0  0  0  0  0  0  0  0  0
   62.1222  151.8984  -43.1308 H   0  0  0  0  0  0  0  0  0  0  0  0
   61.9490  153.0647  -41.8846 H   0  0  0  0  0  0  0  0  0  0  0  0
   71.0861  149.0029  -47.4100 H   0  0  0  0  0  0  0  0  0  0  0  0
   69.2216  148.3068  -45.9669 H   0  0  0  0  0  0  0  0  0  0  0  0
   66.9238  149.0766  -46.4817 H   0  0  0  0  0  0  0  0  0  0  0  0
   66.5537  150.5805  -48.3642 H   0  0  0  0  0  0  0  0  0  0  0  0
   64.6957  152.6758  -47.0422 H   0  0  0  0  0  0  0  0  0  0  0  0
   63.4067  152.3183  -45.0398 H   0  0  0  0  0  0  0  0  0  0  0  0
   61.4190  156.0571  -45.6059 H   0  0  0  0  0  0  0  0  0  0  0  0
   62.7602  156.4521  -47.6197 H   0  0  0  0  0  0  0  0  0  0  0  0
   70.7951  150.5786  -50.6051 H   0  0  0  0  0  0  0  0  0  0  0  0
   71.8984  149.8988  -49.3902 H   0  0  0  0  0  0  0  0  0  0  0  0
   71.4272  151.6083  -49.3393 H   0  0  0  0  0  0  0  0  0  0  0  0
  1  7  2  0
  2  8  1  0
  2 27  1  0
  3  6  1  0
  3 28  1  0
  3 29  1  0
  4 30  1  0
  4 31  1  0
  5 25  1  0
  6  1  1  0
  6  5  2  0
  7  2  1  0
  7 25  1  0
  8 20  1  0
  8 16  2  0
  9  5  1  0
  9 10  1  0
 10 11  2  0
 10 15  1  0
 11 12  1  0
 12 13  2  0
 12 32  1  0
 13 33  1  0
 14 13  1  0
 14 34  1  0
 15 14  2  0
 15 35  1  0
 16 17  1  0
 16 36  1  0
 17 18  2  0
 17 37  1  0
 18 26  1  0
 19 18  1  0
 19 38  1  0
 20 19  2  0
 20 39  1  0
 21 11  1  0
 21 40  1  0
 21 41  1  0
 21 42  1  0
 22  9  2  0
 24 26  2  0
 26 23  2  0
 26  4  1  0
M  END
>  <lm5_entropy_jk>  (1) 
31.418959509749985

>  <number_of_rotatable_bonds>  (1) 
5

>  <IC50_NM>  (1) 
4800

>  <charge>  (1) 
0

$$$$
