3R8U
     RDKit          3D

 37 39  0  0  1  0  0  0  0  0999 V2000
   63.7131  155.0222  -49.1394 N   0  0  0  0  0  0  0  0  0  0  0  0
   65.4729  154.4112  -50.5363 N   0  0  0  0  0  0  0  0  0  0  0  0
   67.3357  153.5064  -51.6078 N   0  0  0  0  0  0  0  0  0  0  0  0
   62.4839  153.3426  -46.1496 C   0  0  0  0  0  0  0  0  0  0  0  0
   62.4988  153.7395  -47.4107 C   0  0  0  0  0  0  0  0  0  0  0  0
   63.0275  155.0688  -47.8659 C   0  0  0  0  0  0  0  0  0  0  0  0
   64.8316  154.3472  -49.3824 C   0  0  0  0  0  0  0  0  0  0  0  0
   66.8809  153.0179  -49.2787 C   0  0  0  0  0  0  0  0  0  0  0  0
   66.5977  153.6363  -50.5063 C   0  0  0  0  0  0  0  0  0  0  0  0
   67.9419  152.0904  -49.0881 C   0  0  0  0  0  0  0  0  0  0  0  0
   68.0155  151.2428  -47.8459 C   0  0  0  0  0  0  0  0  0  0  0  0
   68.2577  151.7357  -46.5954 C   0  0  0  0  0  0  0  0  0  0  0  0
   68.3893  150.8623  -45.4835 C   0  0  0  0  0  0  0  0  0  0  0  0
   68.2397  149.4718  -45.6875 C   0  0  0  0  0  0  0  0  0  0  0  0
   67.9801  148.9881  -46.9925 C   0  0  0  0  0  0  0  0  0  0  0  0
   67.8847  149.8493  -48.0431 C   0  0  0  0  0  0  0  0  0  0  0  0
   68.6666  151.3352  -44.1767 C   0  0  0  0  0  0  0  0  0  0  0  0
   68.7578  150.4654  -43.1261 C   0  0  0  0  0  0  0  0  0  0  0  0
   68.5836  149.0773  -43.3276 C   0  0  0  0  0  0  0  0  0  0  0  0
   68.3403  148.5902  -44.5794 C   0  0  0  0  0  0  0  0  0  0  0  0
   68.7916  151.9000  -49.9676 O   0  0  0  0  0  0  0  0  0  0  0  0
   65.5542  153.3234  -48.1762 S   0  0  0  0  0  0  0  0  0  0  0  0
   62.1857  155.7421  -48.0123 H   0  0  0  0  0  0  0  0  0  0  0  0
   63.6609  155.5001  -47.0878 H   0  0  0  0  0  0  0  0  0  0  0  0
   63.3242  155.6098  -49.8762 H   0  0  0  0  0  0  0  0  0  0  0  0
   67.0597  153.9617  -52.4670 H   0  0  0  0  0  0  0  0  0  0  0  0
   68.1259  152.8853  -51.5484 H   0  0  0  0  0  0  0  0  0  0  0  0
   68.3790  152.7950  -46.4334 H   0  0  0  0  0  0  0  0  0  0  0  0
   67.8676  147.9239  -47.1308 H   0  0  0  0  0  0  0  0  0  0  0  0
   67.6998  149.4805  -49.0392 H   0  0  0  0  0  0  0  0  0  0  0  0
   68.7987  152.3981  -44.0277 H   0  0  0  0  0  0  0  0  0  0  0  0
   68.9542  150.8219  -42.1249 H   0  0  0  0  0  0  0  0  0  0  0  0
   68.6206  148.4074  -42.4787 H   0  0  0  0  0  0  0  0  0  0  0  0
   68.1973  147.5334  -44.7573 H   0  0  0  0  0  0  0  0  0  0  0  0
   62.0307  152.4106  -45.8453 H   0  0  0  0  0  0  0  0  0  0  0  0
   62.9002  153.9633  -45.3650 H   0  0  0  0  0  0  0  0  0  0  0  0
   62.0832  153.1250  -48.2006 H   0  0  0  0  0  0  0  0  0  0  0  0
  1  6  1  0
  1  7  1  0
  1 25  1  0
  2  7  2  0
  2  9  1  0
  3  9  1  0
  3 26  1  0
  3 27  1  0
  4  5  2  0
  4 35  1  0
  4 36  1  0
  5  6  1  0
  5 37  1  0
  6 23  1  0
  6 24  1  0
  7 22  1  0
  8  9  2  0
  8 22  1  0
 10  8  1  0
 10 11  1  0
 10 21  2  0
 11 12  2  0
 11 16  1  0
 12 13  1  0
 12 28  1  0
 13 14  2  0
 13 17  1  0
 14 15  1  0
 14 20  1  0
 15 16  2  0
 15 29  1  0
 16 30  1  0
 17 18  2  0
 17 31  1  0
 18 19  1  0
 18 32  1  0
 19 20  2  0
 19 33  1  0
 20 34  1  0
M  END
>  <lm5_entropy_jk>  (1) 
31.97375871552738

>  <number_of_rotatable_bonds>  (1) 
5

>  <IC50_NM>  (1) 
5000

>  <charge>  (1) 
0

$$$$
