3QTR
     RDKit          3D

 34 36  0  0  1  0  0  0  0  0999 V2000
   65.8984  154.3120  -50.2436 N   0  0  0  0  0  0  0  0  0  0  0  0
   67.4681  153.5494  -51.8009 N   0  0  0  0  0  0  0  0  0  0  0  0
   64.3854  154.6368  -48.5201 N   0  0  0  0  0  0  0  0  0  0  0  0
   66.9797  153.5337  -50.5599 C   0  0  0  0  0  0  0  0  0  0  0  0
   67.4819  152.7312  -49.5395 C   0  0  0  0  0  0  0  0  0  0  0  0
   68.5455  151.7867  -49.6597 C   0  0  0  0  0  0  0  0  0  0  0  0
   68.7059  150.7746  -48.5575 C   0  0  0  0  0  0  0  0  0  0  0  0
   67.6350  149.9811  -48.1499 C   0  0  0  0  0  0  0  0  0  0  0  0
   67.7967  149.0736  -47.1179 C   0  0  0  0  0  0  0  0  0  0  0  0
   69.0263  148.9547  -46.4880 C   0  0  0  0  0  0  0  0  0  0  0  0
   70.0981  149.7306  -46.9016 C   0  0  0  0  0  0  0  0  0  0  0  0
   69.9405  150.6381  -47.9389 C   0  0  0  0  0  0  0  0  0  0  0  0
   65.4878  154.0304  -49.0224 C   0  0  0  0  0  0  0  0  0  0  0  0
   63.6648  154.3771  -47.3352 C   0  0  0  0  0  0  0  0  0  0  0  0
   62.7141  155.3306  -46.9613 C   0  0  0  0  0  0  0  0  0  0  0  0
   61.9935  155.1790  -45.7927 C   0  0  0  0  0  0  0  0  0  0  0  0
   62.2000  154.0756  -44.9751 C   0  0  0  0  0  0  0  0  0  0  0  0
   63.1123  153.1108  -45.3642 C   0  0  0  0  0  0  0  0  0  0  0  0
   63.8313  153.2430  -46.5444 C   0  0  0  0  0  0  0  0  0  0  0  0
   69.3189  151.8047  -50.6179 O   0  0  0  0  0  0  0  0  0  0  0  0
   66.4586  152.9015  -48.1412 S   0  0  0  0  0  0  0  0  0  0  0  0
   67.0452  154.1159  -52.5147 H   0  0  0  0  0  0  0  0  0  0  0  0
   68.2755  152.9695  -51.9646 H   0  0  0  0  0  0  0  0  0  0  0  0
   66.6744  150.0572  -48.6387 H   0  0  0  0  0  0  0  0  0  0  0  0
   66.9603  148.4703  -46.7889 H   0  0  0  0  0  0  0  0  0  0  0  0
   69.1359  148.2426  -45.6800 H   0  0  0  0  0  0  0  0  0  0  0  0
   71.0404  149.6305  -46.3895 H   0  0  0  0  0  0  0  0  0  0  0  0
   70.7546  151.2628  -48.2696 H   0  0  0  0  0  0  0  0  0  0  0  0
   63.8872  155.2036  -49.1884 H   0  0  0  0  0  0  0  0  0  0  0  0
   62.5273  156.1691  -47.6166 H   0  0  0  0  0  0  0  0  0  0  0  0
   61.2649  155.9314  -45.5266 H   0  0  0  0  0  0  0  0  0  0  0  0
   61.6597  153.9624  -44.0484 H   0  0  0  0  0  0  0  0  0  0  0  0
   63.2641  152.2288  -44.7526 H   0  0  0  0  0  0  0  0  0  0  0  0
   64.4858  152.4371  -46.8330 H   0  0  0  0  0  0  0  0  0  0  0  0
  1  4  1  0
  1 13  2  0
  2  4  1  0
  2 22  1  0
  2 23  1  0
  3 13  1  0
  3 14  1  0
  3 29  1  0
  4  5  2  0
  5 21  1  0
  6  5  1  0
  6  7  1  0
  6 20  2  0
  7  8  2  0
  7 12  1  0
  8  9  1  0
  8 24  1  0
  9 10  2  0
  9 25  1  0
 10 11  1  0
 10 26  1  0
 11 12  2  0
 11 27  1  0
 12 28  1  0
 13 21  1  0
 14 15  2  0
 14 19  1  0
 15 16  1  0
 15 30  1  0
 16 17  2  0
 16 31  1  0
 17 18  1  0
 17 32  1  0
 18 19  2  0
 18 33  1  0
 19 34  1  0
M  END
>  <lm5_entropy_jk>  (1) 
21.136452688881562

>  <number_of_rotatable_bonds>  (1) 
4

>  <IC50_NM>  (1) 
930

>  <charge>  (1) 
0

$$$$
