3QQK
     RDKit          3D

 31 32  0  0  0  0  0  0  0  0999 V2000
   62.7538  153.2429  -46.3175 C   0  0  0  0  0  0  0  0  0  0  0  0
   62.7813  154.1276  -47.2997 C   0  0  0  0  0  0  0  0  0  0  0  0
   63.8921  155.1244  -47.4966 C   0  0  0  0  0  0  0  0  0  0  0  0
   64.3632  155.2027  -48.8631 N   0  0  0  0  0  0  0  0  0  0  0  0
   65.3349  154.4334  -49.3442 C   0  0  0  0  0  0  0  0  0  0  0  0
   65.7531  154.4826  -50.5949 N   0  0  0  0  0  0  0  0  0  0  0  0
   66.8052  153.6249  -50.7774 C   0  0  0  0  0  0  0  0  0  0  0  0
   67.2042  152.8874  -49.6584 C   0  0  0  0  0  0  0  0  0  0  0  0
   66.1488  153.2809  -48.3223 S   0  0  0  0  0  0  0  0  0  0  0  0
   67.3552  153.5132  -51.9851 N   0  0  0  0  0  0  0  0  0  0  0  0
   68.2640  151.9296  -49.6812 C   0  0  0  0  0  0  0  0  0  0  0  0
   68.3976  150.9055  -48.5921 C   0  0  0  0  0  0  0  0  0  0  0  0
   67.2802  150.2369  -48.1006 C   0  0  0  0  0  0  0  0  0  0  0  0
   67.4178  149.2282  -47.1595 C   0  0  0  0  0  0  0  0  0  0  0  0
   68.6829  148.8809  -46.7083 C   0  0  0  0  0  0  0  0  0  0  0  0
   69.7985  149.5458  -47.1962 C   0  0  0  0  0  0  0  0  0  0  0  0
   69.6631  150.5467  -48.1445 C   0  0  0  0  0  0  0  0  0  0  0  0
   69.0623  151.9025  -50.6241 O   0  0  0  0  0  0  0  0  0  0  0  0
   61.9213  152.5750  -46.1666 H   0  0  0  0  0  0  0  0  0  0  0  0
   63.5714  153.1586  -45.6112 H   0  0  0  0  0  0  0  0  0  0  0  0
   61.9751  154.1948  -48.0224 H   0  0  0  0  0  0  0  0  0  0  0  0
   63.5383  156.1186  -47.2278 H   0  0  0  0  0  0  0  0  0  0  0  0
   64.7236  154.8927  -46.8387 H   0  0  0  0  0  0  0  0  0  0  0  0
   63.7749  155.6958  -49.5324 H   0  0  0  0  0  0  0  0  0  0  0  0
   67.0658  154.1159  -52.7429 H   0  0  0  0  0  0  0  0  0  0  0  0
   68.1973  152.9574  -52.0252 H   0  0  0  0  0  0  0  0  0  0  0  0
   66.3008  150.4825  -48.4766 H   0  0  0  0  0  0  0  0  0  0  0  0
   66.5445  148.7151  -46.7879 H   0  0  0  0  0  0  0  0  0  0  0  0
   68.7957  148.0810  -45.9896 H   0  0  0  0  0  0  0  0  0  0  0  0
   70.7834  149.2704  -46.8480 H   0  0  0  0  0  0  0  0  0  0  0  0
   70.5312  151.0483  -48.5448 H   0  0  0  0  0  0  0  0  0  0  0  0
  1  2  2  0
  1 19  1  0
  1 20  1  0
  2 21  1  0
  3  2  1  0
  3 22  1  0
  3 23  1  0
  4  3  1  0
  4 24  1  0
  5  4  1  0
  5  9  1  0
  6  5  2  0
  7  6  1  0
  7  8  2  0
  8  9  1  0
 10  7  1  0
 10 25  1  0
 10 26  1  0
 11  8  1  0
 11 12  1  0
 12 17  1  0
 12 13  2  0
 13 14  1  0
 13 27  1  0
 14 15  2  0
 14 28  1  0
 15 29  1  0
 16 15  1  0
 16 30  1  0
 17 16  2  0
 17 31  1  0
 18 11  2  0
M  END
>  <lm5_entropy_jk>  (1) 
22.397995528352578

>  <number_of_rotatable_bonds>  (1) 
5

>  <IC50_NM>  (1) 
15000

>  <charge>  (1) 
0

$$$$
