3RMF
     RDKit          3D

 45 48  0  0  0  0  0  0  0  0999 V2000
   65.5265  154.1521  -50.7067 N   0  0  0  0  0  0  0  0  0  0  0  0
   63.9711  154.7104  -49.0824 N   0  0  0  0  0  0  0  0  0  0  0  0
   67.2199  153.3500  -52.0841 N   0  0  0  0  0  0  0  0  0  0  0  0
   61.1522  153.1324  -43.2540 N   0  0  0  0  0  0  0  0  0  0  0  0
   67.0982  152.6811  -49.7616 C   0  0  0  0  0  0  0  0  0  0  0  0
   66.6494  153.3847  -50.8871 C   0  0  0  0  0  0  0  0  0  0  0  0
   65.0644  154.0286  -49.4870 C   0  0  0  0  0  0  0  0  0  0  0  0
   63.1904  154.4934  -47.9423 C   0  0  0  0  0  0  0  0  0  0  0  0
   68.2327  151.8121  -49.7990 C   0  0  0  0  0  0  0  0  0  0  0  0
   68.6750  150.9397  -48.6611 C   0  0  0  0  0  0  0  0  0  0  0  0
   70.0535  150.6199  -48.6419 C   0  0  0  0  0  0  0  0  0  0  0  0
   70.5559  149.7704  -47.7044 C   0  0  0  0  0  0  0  0  0  0  0  0
   69.7190  149.1905  -46.7231 C   0  0  0  0  0  0  0  0  0  0  0  0
   68.3386  149.4955  -46.7371 C   0  0  0  0  0  0  0  0  0  0  0  0
   67.8368  150.3703  -47.7382 C   0  0  0  0  0  0  0  0  0  0  0  0
   62.4445  155.5675  -47.4591 C   0  0  0  0  0  0  0  0  0  0  0  0
   61.6171  155.4112  -46.3642 C   0  0  0  0  0  0  0  0  0  0  0  0
   61.5409  154.1729  -45.7514 C   0  0  0  0  0  0  0  0  0  0  0  0
   62.2618  153.0866  -46.2327 C   0  0  0  0  0  0  0  0  0  0  0  0
   63.0826  153.2413  -47.3311 C   0  0  0  0  0  0  0  0  0  0  0  0
   70.2168  148.3056  -45.7356 C   0  0  0  0  0  0  0  0  0  0  0  0
   69.3778  147.7683  -44.8050 C   0  0  0  0  0  0  0  0  0  0  0  0
   68.0004  148.0651  -44.8228 C   0  0  0  0  0  0  0  0  0  0  0  0
   67.4912  148.9059  -45.7693 C   0  0  0  0  0  0  0  0  0  0  0  0
   68.9195  151.7580  -50.8284 O   0  0  0  0  0  0  0  0  0  0  0  0
   59.4289  152.9344  -44.9450 O   0  0  0  0  0  0  0  0  0  0  0  0
   59.8838  155.1609  -44.0094 O   0  0  0  0  0  0  0  0  0  0  0  0
   65.9994  152.9982  -48.4398 S   0  0  0  0  0  0  0  0  0  0  0  0
   60.3943  153.8916  -44.4552 S   0  0  0  0  0  0  0  0  0  0  0  0
   63.6099  155.4213  -49.7206 H   0  0  0  0  0  0  0  0  0  0  0  0
   66.8822  153.9234  -52.8436 H   0  0  0  0  0  0  0  0  0  0  0  0
   68.0520  152.7850  -52.1485 H   0  0  0  0  0  0  0  0  0  0  0  0
   61.3109  152.1342  -43.4576 H   0  0  0  0  0  0  0  0  0  0  0  0
   61.9443  153.6159  -42.8585 H   0  0  0  0  0  0  0  0  0  0  0  0
   70.6869  151.0421  -49.4067 H   0  0  0  0  0  0  0  0  0  0  0  0
   71.5992  149.4919  -47.7285 H   0  0  0  0  0  0  0  0  0  0  0  0
   66.7721  150.5468  -47.7677 H   0  0  0  0  0  0  0  0  0  0  0  0
   62.4732  156.5031  -47.9910 H   0  0  0  0  0  0  0  0  0  0  0  0
   61.0108  156.2288  -46.0077 H   0  0  0  0  0  0  0  0  0  0  0  0
   62.1576  152.1220  -45.7555 H   0  0  0  0  0  0  0  0  0  0  0  0
   63.5878  152.3835  -47.7402 H   0  0  0  0  0  0  0  0  0  0  0  0
   71.2710  148.0551  -45.7450 H   0  0  0  0  0  0  0  0  0  0  0  0
   69.7646  147.1000  -44.0502 H   0  0  0  0  0  0  0  0  0  0  0  0
   67.3460  147.6065  -44.0974 H   0  0  0  0  0  0  0  0  0  0  0  0
   66.4317  149.1083  -45.8145 H   0  0  0  0  0  0  0  0  0  0  0  0
  1  7  2  0
  2  8  1  0
  2 30  1  0
  3  6  1  0
  3 31  1  0
  3 32  1  0
  4 33  1  0
  4 34  1  0
  5 28  1  0
  6  1  1  0
  6  5  2  0
  7  2  1  0
  7 28  1  0
  8 16  2  0
  8 20  1  0
  9  5  1  0
  9 10  1  0
 10 11  2  0
 10 15  1  0
 11 12  1  0
 11 35  1  0
 12 13  2  0
 12 36  1  0
 13 21  1  0
 14 13  1  0
 14 24  1  0
 15 14  2  0
 15 37  1  0
 16 17  1  0
 16 38  1  0
 17 18  2  0
 17 39  1  0
 18 29  1  0
 19 18  1  0
 19 40  1  0
 20 19  2  0
 20 41  1  0
 21 22  2  0
 21 42  1  0
 22 43  1  0
 23 22  1  0
 23 44  1  0
 24 23  2  0
 24 45  1  0
 25  9  2  0
 26 29  2  0
 29 27  2  0
 29  4  1  0
M  END
>  <lm5_entropy_jk>  (1) 
22.397995528352578

>  <number_of_rotatable_bonds>  (1) 
5

>  <IC50_NM>  (1) 
82000

>  <charge>  (1) 
0

$$$$
