3RMF
     RDKit          3D

 45 48  0  0  0  0  0  0  0  0999 V2000
   65.5253  154.1619  -50.6965 N   0  0  0  0  0  0  0  0  0  0  0  0
   63.9795  154.7235  -49.0638 N   0  0  0  0  0  0  0  0  0  0  0  0
   67.2145  153.3597  -52.0797 N   0  0  0  0  0  0  0  0  0  0  0  0
   61.1835  153.1375  -43.2206 N   0  0  0  0  0  0  0  0  0  0  0  0
   67.1038  152.6935  -49.7558 C   0  0  0  0  0  0  0  0  0  0  0  0
   66.6489  153.3957  -50.8803 C   0  0  0  0  0  0  0  0  0  0  0  0
   65.0704  154.0407  -49.4738 C   0  0  0  0  0  0  0  0  0  0  0  0
   63.2068  154.5066  -47.9180 C   0  0  0  0  0  0  0  0  0  0  0  0
   68.2396  151.8253  -49.7957 C   0  0  0  0  0  0  0  0  0  0  0  0
   68.6816  150.9516  -48.6572 C   0  0  0  0  0  0  0  0  0  0  0  0
   70.0616  150.6396  -48.6281 C   0  0  0  0  0  0  0  0  0  0  0  0
   70.5622  149.7941  -47.6861 C   0  0  0  0  0  0  0  0  0  0  0  0
   69.7237  149.2111  -46.7087 C   0  0  0  0  0  0  0  0  0  0  0  0
   68.3418  149.5070  -46.7331 C   0  0  0  0  0  0  0  0  0  0  0  0
   67.8408  150.3761  -47.7398 C   0  0  0  0  0  0  0  0  0  0  0  0
   62.4564  155.5770  -47.4339 C   0  0  0  0  0  0  0  0  0  0  0  0
   61.6333  155.4164  -46.3362 C   0  0  0  0  0  0  0  0  0  0  0  0
   61.5675  154.1796  -45.7189 C   0  0  0  0  0  0  0  0  0  0  0  0
   62.2948  153.0976  -46.2001 C   0  0  0  0  0  0  0  0  0  0  0  0
   63.1100  153.2559  -47.3022 C   0  0  0  0  0  0  0  0  0  0  0  0
   70.2200  148.3284  -45.7182 C   0  0  0  0  0  0  0  0  0  0  0  0
   69.3782  147.7850  -44.7934 C   0  0  0  0  0  0  0  0  0  0  0  0
   67.9992  148.0749  -44.8199 C   0  0  0  0  0  0  0  0  0  0  0  0
   67.4917  148.9124  -45.7707 C   0  0  0  0  0  0  0  0  0  0  0  0
   68.9256  151.7749  -50.8257 O   0  0  0  0  0  0  0  0  0  0  0  0
   59.4529  152.9480  -44.9115 O   0  0  0  0  0  0  0  0  0  0  0  0
   59.9215  155.1690  -43.9645 O   0  0  0  0  0  0  0  0  0  0  0  0
   66.0113  153.0114  -48.4291 S   0  0  0  0  0  0  0  0  0  0  0  0
   60.4221  153.8997  -44.4188 S   0  0  0  0  0  0  0  0  0  0  0  0
   63.6108  155.4298  -49.7030 H   0  0  0  0  0  0  0  0  0  0  0  0
   66.8746  153.9313  -52.8398 H   0  0  0  0  0  0  0  0  0  0  0  0
   68.0478  152.7965  -52.1458 H   0  0  0  0  0  0  0  0  0  0  0  0
   61.3451  152.1402  -43.4212 H   0  0  0  0  0  0  0  0  0  0  0  0
   61.9752  153.6242  -42.8279 H   0  0  0  0  0  0  0  0  0  0  0  0
   70.6995  151.0637  -49.3877 H   0  0  0  0  0  0  0  0  0  0  0  0
   71.6060  149.5196  -47.7036 H   0  0  0  0  0  0  0  0  0  0  0  0
   66.7745  150.5427  -47.7779 H   0  0  0  0  0  0  0  0  0  0  0  0
   62.4775  156.5117  -47.9677 H   0  0  0  0  0  0  0  0  0  0  0  0
   61.0210  156.2299  -45.9806 H   0  0  0  0  0  0  0  0  0  0  0  0
   62.2003  152.1317  -45.7237 H   0  0  0  0  0  0  0  0  0  0  0  0
   63.6194  152.4010  -47.7113 H   0  0  0  0  0  0  0  0  0  0  0  0
   71.2753  148.0824  -45.7214 H   0  0  0  0  0  0  0  0  0  0  0  0
   69.7643  147.1154  -44.0387 H   0  0  0  0  0  0  0  0  0  0  0  0
   67.3419  147.6135  -44.0985 H   0  0  0  0  0  0  0  0  0  0  0  0
   66.4310  149.1064  -45.8244 H   0  0  0  0  0  0  0  0  0  0  0  0
  1  7  2  0
  2  8  1  0
  2 30  1  0
  3  6  1  0
  3 31  1  0
  3 32  1  0
  4 33  1  0
  4 34  1  0
  5 28  1  0
  6  1  1  0
  6  5  2  0
  7  2  1  0
  7 28  1  0
  8 16  2  0
  8 20  1  0
  9  5  1  0
  9 10  1  0
 10 11  2  0
 10 15  1  0
 11 12  1  0
 11 35  1  0
 12 13  2  0
 12 36  1  0
 13 21  1  0
 14 13  1  0
 14 24  1  0
 15 14  2  0
 15 37  1  0
 16 17  1  0
 16 38  1  0
 17 18  2  0
 17 39  1  0
 18 29  1  0
 19 18  1  0
 19 40  1  0
 20 19  2  0
 20 41  1  0
 21 22  2  0
 21 42  1  0
 22 43  1  0
 23 22  1  0
 23 44  1  0
 24 23  2  0
 24 45  1  0
 25  9  2  0
 26 29  2  0
 29 27  2  0
 29  4  1  0
M  END
>  <lm5_entropy_jk>  (1) 
22.397995528352578

>  <number_of_rotatable_bonds>  (1) 
5

>  <IC50_NM>  (1) 
82000

>  <charge>  (1) 
0

$$$$
