3R9N
     RDKit          3D

 42 44  0  0  1  0  0  0  0  0999 V2000
   68.3293  151.2194  -44.2473 N   0  0  0  0  0  0  0  0  0  0  0  0
   65.3271  154.3996  -50.1892 N   0  0  0  0  0  0  0  0  0  0  0  0
   63.7587  154.9404  -48.5317 N   0  0  0  0  0  0  0  0  0  0  0  0
   67.0376  153.4965  -51.5176 N   0  0  0  0  0  0  0  0  0  0  0  0
   68.1805  149.3063  -45.7789 C   0  0  0  0  0  0  0  0  0  0  0  0
   68.2043  150.6779  -45.6073 C   0  0  0  0  0  0  0  0  0  0  0  0
   68.1042  151.5703  -46.6600 C   0  0  0  0  0  0  0  0  0  0  0  0
   68.0153  151.0573  -47.9437 C   0  0  0  0  0  0  0  0  0  0  0  0
   68.0389  149.6803  -48.1353 C   0  0  0  0  0  0  0  0  0  0  0  0
   68.0931  148.8062  -47.0657 C   0  0  0  0  0  0  0  0  0  0  0  0
   67.8574  151.9156  -49.1726 C   0  0  0  0  0  0  0  0  0  0  0  0
   66.8075  152.8712  -49.2042 C   0  0  0  0  0  0  0  0  0  0  0  0
   66.4189  153.5901  -50.3426 C   0  0  0  0  0  0  0  0  0  0  0  0
   64.8088  154.2614  -48.9802 C   0  0  0  0  0  0  0  0  0  0  0  0
   63.2091  154.7798  -47.1943 C   0  0  0  0  0  0  0  0  0  0  0  0
   62.1121  153.7204  -47.1029 C   0  0  0  0  0  0  0  0  0  0  0  0
   61.6283  153.6067  -45.6603 C   0  0  0  0  0  0  0  0  0  0  0  0
   61.0910  154.9397  -45.1521 C   0  0  0  0  0  0  0  0  0  0  0  0
   62.1552  156.0277  -45.2686 C   0  0  0  0  0  0  0  0  0  0  0  0
   62.7007  156.1261  -46.6896 C   0  0  0  0  0  0  0  0  0  0  0  0
   68.2941  152.4306  -44.1049 O   0  0  0  0  0  0  0  0  0  0  0  0
   68.4727  150.4413  -43.3271 O   0  0  0  0  0  0  0  0  0  0  0  0
   68.5923  151.7086  -50.1419 O   0  0  0  0  0  0  0  0  0  0  0  0
   65.6125  153.1058  -47.9553 S   0  0  0  0  0  0  0  0  0  0  0  0
   68.2282  148.6495  -44.9271 H   0  0  0  0  0  0  0  0  0  0  0  0
   68.1237  152.6271  -46.4537 H   0  0  0  0  0  0  0  0  0  0  0  0
   63.2981  155.5935  -49.1645 H   0  0  0  0  0  0  0  0  0  0  0  0
   66.7794  154.0499  -52.3235 H   0  0  0  0  0  0  0  0  0  0  0  0
   67.8355  152.8789  -51.5385 H   0  0  0  0  0  0  0  0  0  0  0  0
   67.9902  149.3070  -49.1438 H   0  0  0  0  0  0  0  0  0  0  0  0
   68.0609  147.7382  -47.2053 H   0  0  0  0  0  0  0  0  0  0  0  0
   64.0235  154.4600  -46.5489 H   0  0  0  0  0  0  0  0  0  0  0  0
   62.4762  152.7596  -47.4625 H   0  0  0  0  0  0  0  0  0  0  0  0
   61.2906  154.0146  -47.7579 H   0  0  0  0  0  0  0  0  0  0  0  0
   62.4603  153.2851  -45.0273 H   0  0  0  0  0  0  0  0  0  0  0  0
   60.8776  152.8306  -45.5562 H   0  0  0  0  0  0  0  0  0  0  0  0
   60.7599  154.8414  -44.1174 H   0  0  0  0  0  0  0  0  0  0  0  0
   60.2142  155.2238  -45.7441 H   0  0  0  0  0  0  0  0  0  0  0  0
   61.7538  156.9919  -44.9564 H   0  0  0  0  0  0  0  0  0  0  0  0
   62.9744  155.7934  -44.5830 H   0  0  0  0  0  0  0  0  0  0  0  0
   61.9242  156.4777  -47.3731 H   0  0  0  0  0  0  0  0  0  0  0  0
   63.5154  156.8451  -46.7275 H   0  0  0  0  0  0  0  0  0  0  0  0
  1  6  1  0
  1 21  1  0
  1 22  2  0
  2 13  1  0
  2 14  2  0
  3 14  1  0
  3 15  1  0
  3 27  1  0
  4 13  1  0
  4 28  1  0
  4 29  1  0
  5  6  2  0
  5 10  1  0
  5 25  1  0
  6  7  1  0
  7  8  2  0
  7 26  1  0
  8  9  1  0
  9 10  2  0
  9 30  1  0
 10 31  1  0
 11  8  1  0
 11 12  1  0
 11 23  2  0
 12 13  2  0
 12 24  1  0
 14 24  1  0
 15 16  1  0
 15 20  1  0
 15 32  1  0
 16 17  1  0
 16 33  1  0
 16 34  1  0
 17 18  1  0
 17 35  1  0
 17 36  1  0
 18 19  1  0
 18 37  1  0
 18 38  1  0
 19 20  1  0
 19 39  1  0
 19 40  1  0
 20 41  1  0
 20 42  1  0
M  CHG  2   1   1  21  -1
M  END
>  <lm5_entropy_jk>  (1) 
22.585594734129973

>  <number_of_rotatable_bonds>  (1) 
5

>  <IC50_NM>  (1) 
1400

>  <charge>  (1) 
0

$$$$
