3RPV
     RDKit          3D

 41 43  0  0  0  0  0  0  0  0999 V2000
   65.9521  154.3543  -50.3363 N   0  0  0  0  0  0  0  0  0  0  0  0
   64.5975  154.8134  -48.5052 N   0  0  0  0  0  0  0  0  0  0  0  0
   67.4248  153.5349  -51.9630 N   0  0  0  0  0  0  0  0  0  0  0  0
   67.2049  148.6431  -46.2713 N   0  0  0  0  0  0  0  0  0  0  0  0
   61.6978  152.7993  -42.6695 N   0  0  0  0  0  0  0  0  0  0  0  0
   67.5234  152.7365  -49.6956 C   0  0  0  0  0  0  0  0  0  0  0  0
   66.9961  153.5416  -50.7031 C   0  0  0  0  0  0  0  0  0  0  0  0
   65.6190  154.1226  -49.0887 C   0  0  0  0  0  0  0  0  0  0  0  0
   63.8255  154.5029  -47.3726 C   0  0  0  0  0  0  0  0  0  0  0  0
   68.5604  151.7691  -49.8785 C   0  0  0  0  0  0  0  0  0  0  0  0
   68.8757  150.7876  -48.7846 C   0  0  0  0  0  0  0  0  0  0  0  0
   70.2105  150.4830  -48.5527 C   0  0  0  0  0  0  0  0  0  0  0  0
   70.5184  149.5777  -47.5465 C   0  0  0  0  0  0  0  0  0  0  0  0
   69.5291  148.9714  -46.7972 C   0  0  0  0  0  0  0  0  0  0  0  0
   68.1806  149.2435  -47.0462 C   0  0  0  0  0  0  0  0  0  0  0  0
   67.8718  150.1618  -48.0505 C   0  0  0  0  0  0  0  0  0  0  0  0
   63.8946  153.2971  -46.6751 C   0  0  0  0  0  0  0  0  0  0  0  0
   63.0851  153.0631  -45.5731 C   0  0  0  0  0  0  0  0  0  0  0  0
   62.1968  154.0358  -45.1380 C   0  0  0  0  0  0  0  0  0  0  0  0
   62.1074  155.2345  -45.8363 C   0  0  0  0  0  0  0  0  0  0  0  0
   62.9062  155.4618  -46.9385 C   0  0  0  0  0  0  0  0  0  0  0  0
   69.2149  151.7480  -50.9224 O   0  0  0  0  0  0  0  0  0  0  0  0
   59.9583  152.9999  -44.3738 O   0  0  0  0  0  0  0  0  0  0  0  0
   60.7285  155.0248  -43.1983 O   0  0  0  0  0  0  0  0  0  0  0  0
   66.5987  152.9868  -48.2423 S   0  0  0  0  0  0  0  0  0  0  0  0
   61.0338  153.7558  -43.7986 S   0  0  0  0  0  0  0  0  0  0  0  0
   64.1792  155.4849  -49.1291 H   0  0  0  0  0  0  0  0  0  0  0  0
   67.0330  154.1589  -52.6448 H   0  0  0  0  0  0  0  0  0  0  0  0
   68.2204  152.9446  -52.1555 H   0  0  0  0  0  0  0  0  0  0  0  0
   66.2445  148.7302  -46.5861 H   0  0  0  0  0  0  0  0  0  0  0  0
   67.3982  147.6760  -46.0482 H   0  0  0  0  0  0  0  0  0  0  0  0
   61.8918  151.8210  -43.0125 H   0  0  0  0  0  0  0  0  0  0  0  0
   62.4728  153.2234  -42.1704 H   0  0  0  0  0  0  0  0  0  0  0  0
   70.9745  150.9361  -49.1664 H   0  0  0  0  0  0  0  0  0  0  0  0
   71.5436  149.3071  -47.3517 H   0  0  0  0  0  0  0  0  0  0  0  0
   69.7810  148.2510  -46.0307 H   0  0  0  0  0  0  0  0  0  0  0  0
   66.8312  150.3499  -48.2712 H   0  0  0  0  0  0  0  0  0  0  0  0
   64.5566  152.5098  -46.9906 H   0  0  0  0  0  0  0  0  0  0  0  0
   63.1266  152.1075  -45.0663 H   0  0  0  0  0  0  0  0  0  0  0  0
   61.3954  155.9873  -45.5304 H   0  0  0  0  0  0  0  0  0  0  0  0
   62.7912  156.3801  -47.4912 H   0  0  0  0  0  0  0  0  0  0  0  0
  1  8  2  0
  2  9  1  0
  2 27  1  0
  3  7  1  0
  3 28  1  0
  3 29  1  0
  4 30  1  0
  4 31  1  0
  5 32  1  0
  5 33  1  0
  6 25  1  0
  7  1  1  0
  7  6  2  0
  8  2  1  0
  8 25  1  0
  9 21  1  0
  9 17  2  0
 10  6  1  0
 10 11  1  0
 11 12  2  0
 11 16  1  0
 12 13  1  0
 12 34  1  0
 13 14  2  0
 13 35  1  0
 14 36  1  0
 15 14  1  0
 15  4  1  0
 16 15  2  0
 16 37  1  0
 17 18  1  0
 17 38  1  0
 18 19  2  0
 18 39  1  0
 19 26  1  0
 20 19  1  0
 20 40  1  0
 21 20  2  0
 21 41  1  0
 22 10  2  0
 23 26  2  0
 26 24  2  0
 26  5  1  0
M  END
>  <lm5_entropy_jk>  (1) 
21.154920599914565

>  <number_of_rotatable_bonds>  (1) 
5

>  <IC50_NM>  (1) 
70

>  <charge>  (1) 
0

$$$$
