3QXP
     RDKit          3D

 41 43  0  0  0  0  0  0  0  0999 V2000
   65.9445  154.3917  -50.4863 N   0  0  0  0  0  0  0  0  0  0  0  0
   64.6135  154.9110  -48.6278 N   0  0  0  0  0  0  0  0  0  0  0  0
   67.4666  153.5546  -52.0886 N   0  0  0  0  0  0  0  0  0  0  0  0
   62.1341  152.8811  -42.8272 N   0  0  0  0  0  0  0  0  0  0  0  0
   71.0016  150.8011  -49.0953 N   0  0  0  0  0  0  0  0  0  0  0  0
   67.4996  152.7695  -49.8183 C   0  0  0  0  0  0  0  0  0  0  0  0
   66.9826  153.5638  -50.8391 C   0  0  0  0  0  0  0  0  0  0  0  0
   65.6296  154.2056  -49.2254 C   0  0  0  0  0  0  0  0  0  0  0  0
   63.8975  154.5949  -47.4447 C   0  0  0  0  0  0  0  0  0  0  0  0
   68.3700  151.6494  -49.9768 C   0  0  0  0  0  0  0  0  0  0  0  0
   68.5709  150.7357  -48.7785 C   0  0  0  0  0  0  0  0  0  0  0  0
   69.8253  150.3100  -48.3747 C   0  0  0  0  0  0  0  0  0  0  0  0
   70.0252  149.4469  -47.3137 C   0  0  0  0  0  0  0  0  0  0  0  0
   68.9245  148.9837  -46.6125 C   0  0  0  0  0  0  0  0  0  0  0  0
   67.6525  149.3574  -47.0130 C   0  0  0  0  0  0  0  0  0  0  0  0
   67.4829  150.2035  -48.0949 C   0  0  0  0  0  0  0  0  0  0  0  0
   64.0456  153.4267  -46.6956 C   0  0  0  0  0  0  0  0  0  0  0  0
   63.2864  153.2216  -45.5513 C   0  0  0  0  0  0  0  0  0  0  0  0
   62.3517  154.1608  -45.1441 C   0  0  0  0  0  0  0  0  0  0  0  0
   62.1830  155.3193  -45.8887 C   0  0  0  0  0  0  0  0  0  0  0  0
   62.9501  155.5298  -47.0174 C   0  0  0  0  0  0  0  0  0  0  0  0
   68.9264  151.3775  -51.0329 O   0  0  0  0  0  0  0  0  0  0  0  0
   60.1428  153.0433  -44.4008 O   0  0  0  0  0  0  0  0  0  0  0  0
   60.8875  154.9844  -43.0797 O   0  0  0  0  0  0  0  0  0  0  0  0
   71.7834  149.9635  -49.4889 O   0  0  0  0  0  0  0  0  0  0  0  0
   71.0942  152.0001  -49.2409 O   0  0  0  0  0  0  0  0  0  0  0  0
   66.6430  153.1265  -48.3522 S   0  0  0  0  0  0  0  0  0  0  0  0
   61.2243  153.7958  -43.8223 S   0  0  0  0  0  0  0  0  0  0  0  0
   64.0327  155.4075  -49.3039 H   0  0  0  0  0  0  0  0  0  0  0  0
   67.0544  154.1211  -52.8246 H   0  0  0  0  0  0  0  0  0  0  0  0
   68.1632  152.8707  -52.3296 H   0  0  0  0  0  0  0  0  0  0  0  0
   62.1259  151.8851  -43.1060 H   0  0  0  0  0  0  0  0  0  0  0  0
   61.9213  153.0335  -41.8581 H   0  0  0  0  0  0  0  0  0  0  0  0
   71.0177  149.1237  -47.0476 H   0  0  0  0  0  0  0  0  0  0  0  0
   69.0485  148.3024  -45.7819 H   0  0  0  0  0  0  0  0  0  0  0  0
   66.7842  148.9846  -46.4872 H   0  0  0  0  0  0  0  0  0  0  0  0
   66.4863  150.4477  -48.4208 H   0  0  0  0  0  0  0  0  0  0  0  0
   64.7153  152.6448  -47.0022 H   0  0  0  0  0  0  0  0  0  0  0  0
   63.4293  152.3056  -44.9916 H   0  0  0  0  0  0  0  0  0  0  0  0
   61.4401  156.0439  -45.5915 H   0  0  0  0  0  0  0  0  0  0  0  0
   62.7773  156.4114  -47.6156 H   0  0  0  0  0  0  0  0  0  0  0  0
  1  8  2  0
  2  9  1  0
  2 29  1  0
  3  7  1  0
  3 30  1  0
  3 31  1  0
  4 32  1  0
  4 33  1  0
  5 12  1  0
  6 27  1  0
  7  1  1  0
  7  6  2  0
  8  2  1  0
  8 27  1  0
  9 21  1  0
  9 17  2  0
 10  6  1  0
 10 11  1  0
 11 16  1  0
 11 12  2  0
 12 13  1  0
 13 14  2  0
 13 34  1  0
 14 35  1  0
 15 14  1  0
 15 36  1  0
 16 15  2  0
 16 37  1  0
 17 18  1  0
 17 38  1  0
 18 19  2  0
 18 39  1  0
 19 28  1  0
 20 19  1  0
 20 40  1  0
 21 20  2  0
 21 41  1  0
 22 10  2  0
 23 28  2  0
 25  5  1  0
 26  5  2  0
 28 24  2  0
 28  4  1  0
M  CHG  2   5   1  25  -1
M  END
>  <lm5_entropy_jk>  (1) 
23.933690845995674

>  <number_of_rotatable_bonds>  (1) 
6

>  <IC50_NM>  (1) 
20

>  <charge>  (1) 
0

$$$$
