3RK7
     RDKit          3D

 37 39  0  0  1  0  0  0  0  0999 V2000
   64.4059  154.6553  -48.4895 N   0  0  0  0  0  0  0  0  0  0  0  0
   65.7825  154.3347  -50.3223 N   0  0  0  0  0  0  0  0  0  0  0  0
   67.3381  153.6684  -51.9551 N   0  0  0  0  0  0  0  0  0  0  0  0
   70.8747  150.1375  -47.5557 N   0  0  0  0  0  0  0  0  0  0  0  0
   61.5836  153.1200  -42.7924 N   0  0  0  0  0  0  0  0  0  0  0  0
   63.8045  154.4213  -47.2357 C   0  0  0  0  0  0  0  0  0  0  0  0
   65.4771  154.0605  -49.0715 C   0  0  0  0  0  0  0  0  0  0  0  0
   66.8729  153.6079  -50.7074 C   0  0  0  0  0  0  0  0  0  0  0  0
   67.4678  152.8291  -49.7146 C   0  0  0  0  0  0  0  0  0  0  0  0
   68.5822  151.9603  -49.8937 C   0  0  0  0  0  0  0  0  0  0  0  0
   69.0012  151.0271  -48.7889 C   0  0  0  0  0  0  0  0  0  0  0  0
   68.1314  150.1439  -48.1632 C   0  0  0  0  0  0  0  0  0  0  0  0
   68.6577  149.2592  -47.2345 C   0  0  0  0  0  0  0  0  0  0  0  0
   70.0173  149.2899  -46.9657 C   0  0  0  0  0  0  0  0  0  0  0  0
   70.3519  150.9682  -48.4561 C   0  0  0  0  0  0  0  0  0  0  0  0
   62.8887  155.3822  -46.7995 C   0  0  0  0  0  0  0  0  0  0  0  0
   62.3236  155.3063  -45.5456 C   0  0  0  0  0  0  0  0  0  0  0  0
   62.6224  154.2553  -44.6869 C   0  0  0  0  0  0  0  0  0  0  0  0
   63.4580  153.2484  -45.1537 C   0  0  0  0  0  0  0  0  0  0  0  0
   64.0394  153.3177  -46.4178 C   0  0  0  0  0  0  0  0  0  0  0  0
   62.0417  154.3000  -43.3002 C   0  0  0  0  0  0  0  0  0  0  0  0
   69.2448  151.9600  -50.9291 O   0  0  0  0  0  0  0  0  0  0  0  0
   61.9057  155.3403  -42.6848 O   0  0  0  0  0  0  0  0  0  0  0  0
   66.5472  152.9918  -48.2489 S   0  0  0  0  0  0  0  0  0  0  0  0
   63.7979  155.1165  -49.1669 H   0  0  0  0  0  0  0  0  0  0  0  0
   66.8857  154.2000  -52.6926 H   0  0  0  0  0  0  0  0  0  0  0  0
   68.1117  153.0681  -52.1865 H   0  0  0  0  0  0  0  0  0  0  0  0
   67.0751  150.1198  -48.4154 H   0  0  0  0  0  0  0  0  0  0  0  0
   68.0236  148.5388  -46.7341 H   0  0  0  0  0  0  0  0  0  0  0  0
   70.4464  148.6040  -46.2434 H   0  0  0  0  0  0  0  0  0  0  0  0
   71.0464  151.6393  -48.9470 H   0  0  0  0  0  0  0  0  0  0  0  0
   62.6112  156.1851  -47.4666 H   0  0  0  0  0  0  0  0  0  0  0  0
   61.6412  156.0673  -45.2041 H   0  0  0  0  0  0  0  0  0  0  0  0
   63.6967  152.3956  -44.5255 H   0  0  0  0  0  0  0  0  0  0  0  0
   64.6529  152.4925  -46.7399 H   0  0  0  0  0  0  0  0  0  0  0  0
   61.8152  152.2471  -43.2650 H   0  0  0  0  0  0  0  0  0  0  0  0
   61.5108  153.0566  -41.7959 H   0  0  0  0  0  0  0  0  0  0  0  0
  1  6  1  0
  1  7  1  0
  1 25  1  0
  2  7  2  0
  2  8  1  0
  3  8  1  0
  3 26  1  0
  3 27  1  0
  4 14  2  0
  4 15  1  0
  5 21  1  0
  5 36  1  0
  5 37  1  0
  6 16  2  0
  6 20  1  0
  7 24  1  0
  8  9  2  0
  9 24  1  0
 10  9  1  0
 10 11  1  0
 10 22  2  0
 11 12  1  0
 11 15  2  0
 12 13  2  0
 12 28  1  0
 13 14  1  0
 13 29  1  0
 14 30  1  0
 15 31  1  0
 16 17  1  0
 16 32  1  0
 17 18  2  0
 17 33  1  0
 18 19  1  0
 18 21  1  0
 19 20  2  0
 19 34  1  0
 20 35  1  0
 21 23  2  0
M  END
>  <lm5_entropy_jk>  (1) 
19.089102203703476

>  <number_of_rotatable_bonds>  (1) 
5

>  <IC50_NM>  (1) 
200

>  <charge>  (1) 
0

$$$$
