3QTQ
     RDKit          3D

 30 31  0  0  1  0  0  0  0  0999 V2000
   65.9788  154.3443  -50.7449 N   0  0  0  0  0  0  0  0  0  0  0  0
   67.6969  153.4451  -52.0390 N   0  0  0  0  0  0  0  0  0  0  0  0
   70.3297  149.7754  -47.1952 N   0  0  0  0  0  0  0  0  0  0  0  0
   64.4911  155.0365  -49.0862 N   0  0  0  0  0  0  0  0  0  0  0  0
   67.0574  153.5118  -50.8744 C   0  0  0  0  0  0  0  0  0  0  0  0
   67.4336  152.8013  -49.7259 C   0  0  0  0  0  0  0  0  0  0  0  0
   68.5593  151.9303  -49.6749 C   0  0  0  0  0  0  0  0  0  0  0  0
   68.7492  150.9505  -48.5493 C   0  0  0  0  0  0  0  0  0  0  0  0
   70.0418  150.6721  -48.1389 C   0  0  0  0  0  0  0  0  0  0  0  0
   69.3175  149.0891  -46.6590 C   0  0  0  0  0  0  0  0  0  0  0  0
   67.9939  149.2793  -47.0150 C   0  0  0  0  0  0  0  0  0  0  0  0
   67.7067  150.2325  -47.9741 C   0  0  0  0  0  0  0  0  0  0  0  0
   65.5018  154.2916  -49.5150 C   0  0  0  0  0  0  0  0  0  0  0  0
   63.9792  154.9819  -47.7315 C   0  0  0  0  0  0  0  0  0  0  0  0
   62.9816  153.8846  -47.4962 C   0  0  0  0  0  0  0  0  0  0  0  0
   63.0137  153.0938  -46.4370 C   0  0  0  0  0  0  0  0  0  0  0  0
   69.4185  151.9459  -50.5644 O   0  0  0  0  0  0  0  0  0  0  0  0
   66.3181  153.1884  -48.4349 S   0  0  0  0  0  0  0  0  0  0  0  0
   67.3195  153.9049  -52.8551 H   0  0  0  0  0  0  0  0  0  0  0  0
   68.4718  152.8030  -52.0846 H   0  0  0  0  0  0  0  0  0  0  0  0
   70.8650  151.1996  -48.6012 H   0  0  0  0  0  0  0  0  0  0  0  0
   69.5752  148.3389  -45.9241 H   0  0  0  0  0  0  0  0  0  0  0  0
   67.2111  148.6822  -46.5732 H   0  0  0  0  0  0  0  0  0  0  0  0
   66.6859  150.3884  -48.2917 H   0  0  0  0  0  0  0  0  0  0  0  0
   63.9284  155.5488  -49.7675 H   0  0  0  0  0  0  0  0  0  0  0  0
   63.5030  155.9431  -47.5488 H   0  0  0  0  0  0  0  0  0  0  0  0
   64.8078  154.8842  -47.0348 H   0  0  0  0  0  0  0  0  0  0  0  0
   62.2577  152.3413  -46.2659 H   0  0  0  0  0  0  0  0  0  0  0  0
   63.7949  153.1804  -45.6903 H   0  0  0  0  0  0  0  0  0  0  0  0
   62.1990  153.7969  -48.2422 H   0  0  0  0  0  0  0  0  0  0  0  0
  1  5  1  0
  1 13  2  0
  2  5  1  0
  2 19  1  0
  2 20  1  0
  3  9  2  0
  3 10  1  0
  4 13  1  0
  4 14  1  0
  4 25  1  0
  5  6  2  0
  6 18  1  0
  7  6  1  0
  7  8  1  0
  7 17  2  0
  8  9  1  0
  8 12  2  0
  9 21  1  0
 10 11  2  0
 10 22  1  0
 11 12  1  0
 11 23  1  0
 12 24  1  0
 13 18  1  0
 14 15  1  0
 14 26  1  0
 14 27  1  0
 15 16  2  0
 15 30  1  0
 16 28  1  0
 16 29  1  0
M  END
>  <lm5_entropy_jk>  (1) 
31.50116356131297

>  <number_of_rotatable_bonds>  (1) 
5

>  <IC50_NM>  (1) 
3100

>  <charge>  (1) 
0

$$$$
