3RK9
     RDKit          3D

 32 33  0  0  1  0  0  0  0  0999 V2000
   64.2961  154.7470  -48.5894 N   0  0  0  0  0  0  0  0  0  0  0  0
   65.7823  154.2577  -50.3296 N   0  0  0  0  0  0  0  0  0  0  0  0
   67.4584  153.4712  -51.7542 N   0  0  0  0  0  0  0  0  0  0  0  0
   70.4965  149.7974  -47.1345 N   0  0  0  0  0  0  0  0  0  0  0  0
   62.9341  155.6450  -46.8011 C   0  0  0  0  0  0  0  0  0  0  0  0
   63.6603  154.4126  -47.3167 C   0  0  0  0  0  0  0  0  0  0  0  0
   62.7109  153.2266  -47.4560 C   0  0  0  0  0  0  0  0  0  0  0  0
   65.3392  154.0960  -49.0960 C   0  0  0  0  0  0  0  0  0  0  0  0
   66.8824  153.4762  -50.5546 C   0  0  0  0  0  0  0  0  0  0  0  0
   67.3281  152.7037  -49.4702 C   0  0  0  0  0  0  0  0  0  0  0  0
   68.4907  151.8809  -49.5119 C   0  0  0  0  0  0  0  0  0  0  0  0
   68.8013  150.9031  -48.4090 C   0  0  0  0  0  0  0  0  0  0  0  0
   67.8214  150.1383  -47.7856 C   0  0  0  0  0  0  0  0  0  0  0  0
   68.1942  149.2078  -46.8346 C   0  0  0  0  0  0  0  0  0  0  0  0
   69.5415  149.0758  -46.5445 C   0  0  0  0  0  0  0  0  0  0  0  0
   70.1254  150.6844  -48.0608 C   0  0  0  0  0  0  0  0  0  0  0  0
   69.2753  151.9317  -50.4669 O   0  0  0  0  0  0  0  0  0  0  0  0
   66.2368  152.9528  -48.1267 S   0  0  0  0  0  0  0  0  0  0  0  0
   63.6340  156.4590  -46.6280 H   0  0  0  0  0  0  0  0  0  0  0  0
   62.4231  155.4192  -45.8670 H   0  0  0  0  0  0  0  0  0  0  0  0
   62.1924  155.9750  -47.5254 H   0  0  0  0  0  0  0  0  0  0  0  0
   64.4535  154.1498  -46.6185 H   0  0  0  0  0  0  0  0  0  0  0  0
   61.9236  153.4541  -48.1756 H   0  0  0  0  0  0  0  0  0  0  0  0
   62.2491  152.9818  -46.4989 H   0  0  0  0  0  0  0  0  0  0  0  0
   63.2517  152.3509  -47.8014 H   0  0  0  0  0  0  0  0  0  0  0  0
   63.7587  155.3428  -49.2190 H   0  0  0  0  0  0  0  0  0  0  0  0
   67.0996  154.0196  -52.5242 H   0  0  0  0  0  0  0  0  0  0  0  0
   68.2992  152.9184  -51.8313 H   0  0  0  0  0  0  0  0  0  0  0  0
   66.7836  150.2407  -48.0668 H   0  0  0  0  0  0  0  0  0  0  0  0
   67.4594  148.5783  -46.3597 H   0  0  0  0  0  0  0  0  0  0  0  0
   69.8672  148.3435  -45.8177 H   0  0  0  0  0  0  0  0  0  0  0  0
   70.9030  151.2474  -48.5595 H   0  0  0  0  0  0  0  0  0  0  0  0
  1  6  1  0
  1  8  1  0
  1 26  1  0
  2  8  2  0
  2  9  1  0
  3  9  1  0
  3 27  1  0
  3 28  1  0
  4 15  2  0
  4 16  1  0
  5  6  1  0
  5 19  1  0
  5 20  1  0
  5 21  1  0
  6  7  1  0
  6 22  1  0
  7 23  1  0
  7 24  1  0
  7 25  1  0
  8 18  1  0
  9 10  2  0
 10 18  1  0
 11 10  1  0
 11 12  1  0
 11 17  2  0
 12 13  1  0
 12 16  2  0
 13 14  2  0
 13 29  1  0
 14 15  1  0
 14 30  1  0
 15 31  1  0
 16 32  1  0
M  END
>  <lm5_entropy_jk>  (1) 
34.96174716553827

>  <number_of_rotatable_bonds>  (1) 
4

>  <IC50_NM>  (1) 
520

>  <charge>  (1) 
0

$$$$
