3QXP
     RDKit          3D

 41 43  0  0  0  0  0  0  0  0999 V2000
   65.9244  154.3915  -50.3730 N   0  0  0  0  0  0  0  0  0  0  0  0
   64.5932  154.8770  -48.5172 N   0  0  0  0  0  0  0  0  0  0  0  0
   67.3928  153.5195  -52.0005 N   0  0  0  0  0  0  0  0  0  0  0  0
   61.7620  152.8924  -42.7069 N   0  0  0  0  0  0  0  0  0  0  0  0
   71.1114  150.7618  -49.0407 N   0  0  0  0  0  0  0  0  0  0  0  0
   67.4794  152.7558  -49.7276 C   0  0  0  0  0  0  0  0  0  0  0  0
   66.9573  153.5609  -50.7409 C   0  0  0  0  0  0  0  0  0  0  0  0
   65.6026  154.1810  -49.1161 C   0  0  0  0  0  0  0  0  0  0  0  0
   63.8191  154.5477  -47.3918 C   0  0  0  0  0  0  0  0  0  0  0  0
   68.3803  151.6699  -49.9362 C   0  0  0  0  0  0  0  0  0  0  0  0
   68.6229  150.7201  -48.7859 C   0  0  0  0  0  0  0  0  0  0  0  0
   69.8841  150.2800  -48.4037 C   0  0  0  0  0  0  0  0  0  0  0  0
   70.0714  149.3712  -47.3800 C   0  0  0  0  0  0  0  0  0  0  0  0
   68.9814  148.8492  -46.7109 C   0  0  0  0  0  0  0  0  0  0  0  0
   67.7092  149.2270  -47.0997 C   0  0  0  0  0  0  0  0  0  0  0  0
   67.5405  150.1470  -48.1227 C   0  0  0  0  0  0  0  0  0  0  0  0
   63.8802  153.3317  -46.7076 C   0  0  0  0  0  0  0  0  0  0  0  0
   63.0540  153.0811  -45.6220 C   0  0  0  0  0  0  0  0  0  0  0  0
   62.1555  154.0491  -45.1913 C   0  0  0  0  0  0  0  0  0  0  0  0
   62.0884  155.2654  -45.8593 C   0  0  0  0  0  0  0  0  0  0  0  0
   62.9018  155.5073  -46.9486 C   0  0  0  0  0  0  0  0  0  0  0  0
   68.8894  151.4445  -51.0312 O   0  0  0  0  0  0  0  0  0  0  0  0
   59.9415  152.9923  -44.3263 O   0  0  0  0  0  0  0  0  0  0  0  0
   60.7004  155.0819  -43.2855 O   0  0  0  0  0  0  0  0  0  0  0  0
   72.0244  149.9220  -49.1649 O   0  0  0  0  0  0  0  0  0  0  0  0
   71.2197  151.9111  -49.3697 O   0  0  0  0  0  0  0  0  0  0  0  0
   66.5935  153.0681  -48.2653 S   0  0  0  0  0  0  0  0  0  0  0  0
   61.0239  153.7950  -43.8353 S   0  0  0  0  0  0  0  0  0  0  0  0
   64.1553  155.5452  -49.1321 H   0  0  0  0  0  0  0  0  0  0  0  0
   67.0757  154.1587  -52.7062 H   0  0  0  0  0  0  0  0  0  0  0  0
   68.1388  152.8572  -52.1741 H   0  0  0  0  0  0  0  0  0  0  0  0
   61.8461  151.8890  -43.0115 H   0  0  0  0  0  0  0  0  0  0  0  0
   62.6435  153.2849  -42.3903 H   0  0  0  0  0  0  0  0  0  0  0  0
   71.0740  149.0771  -47.1182 H   0  0  0  0  0  0  0  0  0  0  0  0
   69.1289  148.1276  -45.9212 H   0  0  0  0  0  0  0  0  0  0  0  0
   66.8473  148.8015  -46.6079 H   0  0  0  0  0  0  0  0  0  0  0  0
   66.5395  150.4176  -48.4083 H   0  0  0  0  0  0  0  0  0  0  0  0
   64.5540  152.5511  -47.0164 H   0  0  0  0  0  0  0  0  0  0  0  0
   63.1061  152.1226  -45.1203 H   0  0  0  0  0  0  0  0  0  0  0  0
   61.3895  156.0216  -45.5256 H   0  0  0  0  0  0  0  0  0  0  0  0
   62.8031  156.4396  -47.4832 H   0  0  0  0  0  0  0  0  0  0  0  0
  1  8  2  0
  2  9  1  0
  2 29  1  0
  3  7  1  0
  3 30  1  0
  3 31  1  0
  4 32  1  0
  4 33  1  0
  5 12  1  0
  6 27  1  0
  7  1  1  0
  7  6  2  0
  8  2  1  0
  8 27  1  0
  9 21  1  0
  9 17  2  0
 10  6  1  0
 10 11  1  0
 11 16  1  0
 11 12  2  0
 12 13  1  0
 13 14  2  0
 13 34  1  0
 14 35  1  0
 15 14  1  0
 15 36  1  0
 16 15  2  0
 16 37  1  0
 17 18  1  0
 17 38  1  0
 18 19  2  0
 18 39  1  0
 19 28  1  0
 20 19  1  0
 20 40  1  0
 21 20  2  0
 21 41  1  0
 22 10  2  0
 23 28  2  0
 25  5  1  0
 26  5  2  0
 28 24  2  0
 28  4  1  0
M  CHG  2   5   1  25  -1
M  END
>  <lm5_entropy_jk>  (1) 
23.933690845995674

>  <number_of_rotatable_bonds>  (1) 
6

>  <IC50_NM>  (1) 
20

>  <charge>  (1) 
0

$$$$
