3RPV
     RDKit          3D

 41 43  0  0  0  0  0  0  0  0999 V2000
   65.9340  154.3641  -50.4412 N   0  0  0  0  0  0  0  0  0  0  0  0
   64.5942  154.8628  -48.5935 N   0  0  0  0  0  0  0  0  0  0  0  0
   67.4616  153.5579  -52.0462 N   0  0  0  0  0  0  0  0  0  0  0  0
   67.2277  148.6468  -46.2388 N   0  0  0  0  0  0  0  0  0  0  0  0
   62.0863  152.8681  -42.7997 N   0  0  0  0  0  0  0  0  0  0  0  0
   67.5117  152.7575  -49.7793 C   0  0  0  0  0  0  0  0  0  0  0  0
   66.9834  153.5525  -50.7957 C   0  0  0  0  0  0  0  0  0  0  0  0
   65.6120  154.1579  -49.1862 C   0  0  0  0  0  0  0  0  0  0  0  0
   63.8739  154.5618  -47.4136 C   0  0  0  0  0  0  0  0  0  0  0  0
   68.5129  151.7452  -49.9284 C   0  0  0  0  0  0  0  0  0  0  0  0
   68.8401  150.8173  -48.7816 C   0  0  0  0  0  0  0  0  0  0  0  0
   70.1817  150.5673  -48.5160 C   0  0  0  0  0  0  0  0  0  0  0  0
   70.5114  149.6526  -47.5251 C   0  0  0  0  0  0  0  0  0  0  0  0
   69.5299  149.0000  -46.8045 C   0  0  0  0  0  0  0  0  0  0  0  0
   68.1815  149.2566  -47.0506 C   0  0  0  0  0  0  0  0  0  0  0  0
   67.8463  150.1597  -48.0577 C   0  0  0  0  0  0  0  0  0  0  0  0
   64.0098  153.3918  -46.6664 C   0  0  0  0  0  0  0  0  0  0  0  0
   63.2485  153.1948  -45.5228 C   0  0  0  0  0  0  0  0  0  0  0  0
   62.3217  154.1417  -45.1160 C   0  0  0  0  0  0  0  0  0  0  0  0
   62.1661  155.3026  -45.8590 C   0  0  0  0  0  0  0  0  0  0  0  0
   62.9379  155.5079  -46.9856 C   0  0  0  0  0  0  0  0  0  0  0  0
   69.1424  151.6222  -50.9790 O   0  0  0  0  0  0  0  0  0  0  0  0
   60.1075  153.0265  -44.3877 O   0  0  0  0  0  0  0  0  0  0  0  0
   60.8410  154.9689  -43.0619 O   0  0  0  0  0  0  0  0  0  0  0  0
   66.6097  153.0493  -48.3228 S   0  0  0  0  0  0  0  0  0  0  0  0
   61.1844  153.7803  -43.8031 S   0  0  0  0  0  0  0  0  0  0  0  0
   64.0314  155.3773  -49.2697 H   0  0  0  0  0  0  0  0  0  0  0  0
   67.0499  154.1253  -52.7815 H   0  0  0  0  0  0  0  0  0  0  0  0
   68.2002  152.9135  -52.2701 H   0  0  0  0  0  0  0  0  0  0  0  0
   66.2541  148.7094  -46.5154 H   0  0  0  0  0  0  0  0  0  0  0  0
   67.4578  147.6933  -45.9803 H   0  0  0  0  0  0  0  0  0  0  0  0
   62.0880  151.8740  -43.0849 H   0  0  0  0  0  0  0  0  0  0  0  0
   61.8577  153.0148  -41.8339 H   0  0  0  0  0  0  0  0  0  0  0  0
   70.9372  151.0718  -49.0990 H   0  0  0  0  0  0  0  0  0  0  0  0
   71.5406  149.4155  -47.3117 H   0  0  0  0  0  0  0  0  0  0  0  0
   69.7816  148.2691  -46.0435 H   0  0  0  0  0  0  0  0  0  0  0  0
   66.8011  150.3106  -48.2915 H   0  0  0  0  0  0  0  0  0  0  0  0
   64.6676  152.6021  -46.9792 H   0  0  0  0  0  0  0  0  0  0  0  0
   63.3825  152.2767  -44.9656 H   0  0  0  0  0  0  0  0  0  0  0  0
   61.4287  156.0326  -45.5620 H   0  0  0  0  0  0  0  0  0  0  0  0
   62.7760  156.3933  -47.5809 H   0  0  0  0  0  0  0  0  0  0  0  0
  1  8  2  0
  2  9  1  0
  2 27  1  0
  3  7  1  0
  3 28  1  0
  3 29  1  0
  4 30  1  0
  4 31  1  0
  5 32  1  0
  5 33  1  0
  6 25  1  0
  7  1  1  0
  7  6  2  0
  8  2  1  0
  8 25  1  0
  9 21  1  0
  9 17  2  0
 10  6  1  0
 10 11  1  0
 11 12  2  0
 11 16  1  0
 12 13  1  0
 12 34  1  0
 13 14  2  0
 13 35  1  0
 14 36  1  0
 15 14  1  0
 15  4  1  0
 16 15  2  0
 16 37  1  0
 17 18  1  0
 17 38  1  0
 18 19  2  0
 18 39  1  0
 19 26  1  0
 20 19  1  0
 20 40  1  0
 21 20  2  0
 21 41  1  0
 22 10  2  0
 23 26  2  0
 26 24  2  0
 26  5  1  0
M  END
>  <lm5_entropy_jk>  (1) 
21.154920599914565

>  <number_of_rotatable_bonds>  (1) 
5

>  <IC50_NM>  (1) 
70

>  <charge>  (1) 
0

$$$$
