3S00
     RDKit          3D

 28 29  0  0  1  0  0  0  0  0999 V2000
   65.9598  154.3265  -50.2153 N   0  0  0  0  0  0  0  0  0  0  0  0
   67.5050  153.4105  -51.7087 N   0  0  0  0  0  0  0  0  0  0  0  0
   64.5550  154.8808  -48.4160 N   0  0  0  0  0  0  0  0  0  0  0  0
   66.9667  153.4424  -50.4903 C   0  0  0  0  0  0  0  0  0  0  0  0
   67.3298  152.5738  -49.4528 C   0  0  0  0  0  0  0  0  0  0  0  0
   68.3444  151.5792  -49.5542 C   0  0  0  0  0  0  0  0  0  0  0  0
   68.5433  150.6002  -48.4432 C   0  0  0  0  0  0  0  0  0  0  0  0
   65.5144  154.1463  -48.9870 C   0  0  0  0  0  0  0  0  0  0  0  0
   63.8679  154.4871  -47.1911 C   0  0  0  0  0  0  0  0  0  0  0  0
   63.0041  155.6131  -46.7126 C   0  0  0  0  0  0  0  0  0  0  0  0
   63.0439  156.1127  -45.4885 C   0  0  0  0  0  0  0  0  0  0  0  0
   69.5789  149.1480  -46.7743 C   0  0  0  0  0  0  0  0  0  0  0  0
   68.2262  149.1469  -46.6517 C   0  0  0  0  0  0  0  0  0  0  0  0
   67.6343  149.9954  -47.6242 C   0  0  0  0  0  0  0  0  0  0  0  0
   69.0945  151.5097  -50.5346 O   0  0  0  0  0  0  0  0  0  0  0  0
   70.7133  148.3655  -45.7466 Cl  0  0  0  0  0  0  0  0  0  0  0  0
   66.2884  152.8758  -48.0856 S   0  0  0  0  0  0  0  0  0  0  0  0
   70.1522  150.0993  -48.0889 S   0  0  0  0  0  0  0  0  0  0  0  0
   67.2321  154.0765  -52.4164 H   0  0  0  0  0  0  0  0  0  0  0  0
   68.2892  152.7878  -51.8247 H   0  0  0  0  0  0  0  0  0  0  0  0
   63.9954  155.4478  -49.0432 H   0  0  0  0  0  0  0  0  0  0  0  0
   64.5918  154.2272  -46.4258 H   0  0  0  0  0  0  0  0  0  0  0  0
   63.2413  153.6061  -47.3739 H   0  0  0  0  0  0  0  0  0  0  0  0
   67.6781  148.5714  -45.9244 H   0  0  0  0  0  0  0  0  0  0  0  0
   66.5682  150.1249  -47.7116 H   0  0  0  0  0  0  0  0  0  0  0  0
   62.3781  156.9122  -45.1964 H   0  0  0  0  0  0  0  0  0  0  0  0
   63.7232  155.7446  -44.7326 H   0  0  0  0  0  0  0  0  0  0  0  0
   62.3005  156.0112  -47.4332 H   0  0  0  0  0  0  0  0  0  0  0  0
  1  4  1  0
  1  8  2  0
  2  4  1  0
  2 19  1  0
  2 20  1  0
  3  8  1  0
  3  9  1  0
  3 21  1  0
  4  5  2  0
  5  6  1  0
  5 17  1  0
  6  7  1  0
  6 15  2  0
  7 14  2  0
  7 18  1  0
  8 17  1  0
  9 10  1  0
  9 22  1  0
  9 23  1  0
 10 11  2  0
 10 28  1  0
 11 26  1  0
 11 27  1  0
 12 13  2  0
 12 16  1  0
 12 18  1  0
 13 14  1  0
 13 24  1  0
 14 25  1  0
M  END
>  <lm5_entropy_jk>  (1) 
31.418959509749985

>  <number_of_rotatable_bonds>  (1) 
5

>  <IC50_NM>  (1) 
12000

>  <charge>  (1) 
0

$$$$
