3RK7
     RDKit          3D

 37 39  0  0  1  0  0  0  0  0999 V2000
   64.4043  154.7466  -48.3874 N   0  0  0  0  0  0  0  0  0  0  0  0
   65.7567  154.3673  -50.2237 N   0  0  0  0  0  0  0  0  0  0  0  0
   67.2866  153.6866  -51.8533 N   0  0  0  0  0  0  0  0  0  0  0  0
   70.8213  149.8315  -47.8136 N   0  0  0  0  0  0  0  0  0  0  0  0
   60.9908  152.6831  -43.3140 N   0  0  0  0  0  0  0  0  0  0  0  0
   63.6617  154.4573  -47.2379 C   0  0  0  0  0  0  0  0  0  0  0  0
   65.4201  154.0946  -48.9782 C   0  0  0  0  0  0  0  0  0  0  0  0
   66.8460  153.6364  -50.6000 C   0  0  0  0  0  0  0  0  0  0  0  0
   67.4012  152.8140  -49.6116 C   0  0  0  0  0  0  0  0  0  0  0  0
   68.5668  152.0252  -49.8103 C   0  0  0  0  0  0  0  0  0  0  0  0
   68.9882  150.9611  -48.8359 C   0  0  0  0  0  0  0  0  0  0  0  0
   68.0991  150.0651  -48.2548 C   0  0  0  0  0  0  0  0  0  0  0  0
   68.5886  149.0462  -47.4541 C   0  0  0  0  0  0  0  0  0  0  0  0
   69.9578  148.9779  -47.2589 C   0  0  0  0  0  0  0  0  0  0  0  0
   70.3433  150.7971  -48.5931 C   0  0  0  0  0  0  0  0  0  0  0  0
   62.8281  155.4822  -46.7775 C   0  0  0  0  0  0  0  0  0  0  0  0
   62.0149  155.2761  -45.6882 C   0  0  0  0  0  0  0  0  0  0  0  0
   62.0076  154.0486  -45.0342 C   0  0  0  0  0  0  0  0  0  0  0  0
   62.8259  153.0240  -45.4989 C   0  0  0  0  0  0  0  0  0  0  0  0
   63.6516  153.2230  -46.5923 C   0  0  0  0  0  0  0  0  0  0  0  0
   61.1213  153.8986  -43.8524 C   0  0  0  0  0  0  0  0  0  0  0  0
   69.2710  152.1755  -50.8118 O   0  0  0  0  0  0  0  0  0  0  0  0
   60.5214  154.8894  -43.3869 O   0  0  0  0  0  0  0  0  0  0  0  0
   66.4224  152.9245  -48.1723 S   0  0  0  0  0  0  0  0  0  0  0  0
   63.9313  155.4056  -49.0000 H   0  0  0  0  0  0  0  0  0  0  0  0
   66.8903  154.3157  -52.5366 H   0  0  0  0  0  0  0  0  0  0  0  0
   68.1661  153.2234  -52.0206 H   0  0  0  0  0  0  0  0  0  0  0  0
   67.0374  150.1363  -48.4507 H   0  0  0  0  0  0  0  0  0  0  0  0
   67.9359  148.3114  -47.0061 H   0  0  0  0  0  0  0  0  0  0  0  0
   70.3867  148.1913  -46.6495 H   0  0  0  0  0  0  0  0  0  0  0  0
   71.0565  151.4622  -49.0622 H   0  0  0  0  0  0  0  0  0  0  0  0
   62.7992  156.4209  -47.3078 H   0  0  0  0  0  0  0  0  0  0  0  0
   61.3548  156.0535  -45.3352 H   0  0  0  0  0  0  0  0  0  0  0  0
   62.8190  152.0555  -45.0175 H   0  0  0  0  0  0  0  0  0  0  0  0
   64.2420  152.3990  -46.9528 H   0  0  0  0  0  0  0  0  0  0  0  0
   61.4945  151.8303  -43.6147 H   0  0  0  0  0  0  0  0  0  0  0  0
   60.4145  152.6203  -42.4932 H   0  0  0  0  0  0  0  0  0  0  0  0
  1  6  1  0
  1  7  1  0
  1 25  1  0
  2  7  2  0
  2  8  1  0
  3  8  1  0
  3 26  1  0
  3 27  1  0
  4 14  2  0
  4 15  1  0
  5 21  1  0
  5 36  1  0
  5 37  1  0
  6 16  2  0
  6 20  1  0
  7 24  1  0
  8  9  2  0
  9 24  1  0
 10  9  1  0
 10 11  1  0
 10 22  2  0
 11 12  1  0
 11 15  2  0
 12 13  2  0
 12 28  1  0
 13 14  1  0
 13 29  1  0
 14 30  1  0
 15 31  1  0
 16 17  1  0
 16 32  1  0
 17 18  2  0
 17 33  1  0
 18 19  1  0
 18 21  1  0
 19 20  2  0
 19 34  1  0
 20 35  1  0
 21 23  2  0
M  END
>  <lm5_entropy_jk>  (1) 
19.089102203703476

>  <number_of_rotatable_bonds>  (1) 
5

>  <IC50_NM>  (1) 
200

>  <charge>  (1) 
0

$$$$
