3QXP
     RDKit          3D

 41 43  0  0  0  0  0  0  0  0999 V2000
   65.7632  154.5286  -50.3520 N   0  0  0  0  0  0  0  0  0  0  0  0
   64.4342  155.0027  -48.4984 N   0  0  0  0  0  0  0  0  0  0  0  0
   67.2406  153.6994  -51.9689 N   0  0  0  0  0  0  0  0  0  0  0  0
   61.7835  152.8761  -42.7994 N   0  0  0  0  0  0  0  0  0  0  0  0
   70.8281  150.8747  -49.0438 N   0  0  0  0  0  0  0  0  0  0  0  0
   67.2856  152.8582  -49.7233 C   0  0  0  0  0  0  0  0  0  0  0  0
   66.7881  153.7001  -50.7211 C   0  0  0  0  0  0  0  0  0  0  0  0
   65.4329  154.3168  -49.0915 C   0  0  0  0  0  0  0  0  0  0  0  0
   63.7232  154.6832  -47.3341 C   0  0  0  0  0  0  0  0  0  0  0  0
   68.1702  151.7692  -49.9506 C   0  0  0  0  0  0  0  0  0  0  0  0
   68.3494  150.7495  -48.8594 C   0  0  0  0  0  0  0  0  0  0  0  0
   69.6008  150.2836  -48.4872 C   0  0  0  0  0  0  0  0  0  0  0  0
   69.7665  149.3012  -47.5312 C   0  0  0  0  0  0  0  0  0  0  0  0
   68.6534  148.7470  -46.9264 C   0  0  0  0  0  0  0  0  0  0  0  0
   67.3867  149.1573  -47.3053 C   0  0  0  0  0  0  0  0  0  0  0  0
   67.2439  150.1412  -48.2707 C   0  0  0  0  0  0  0  0  0  0  0  0
   63.7367  153.4195  -46.7391 C   0  0  0  0  0  0  0  0  0  0  0  0
   62.9637  153.1753  -45.6233 C   0  0  0  0  0  0  0  0  0  0  0  0
   62.1778  154.1913  -45.1007 C   0  0  0  0  0  0  0  0  0  0  0  0
   62.1388  155.4458  -45.6859 C   0  0  0  0  0  0  0  0  0  0  0  0
   62.9156  155.6876  -46.7984 C   0  0  0  0  0  0  0  0  0  0  0  0
   68.7467  151.5962  -51.0257 O   0  0  0  0  0  0  0  0  0  0  0  0
   59.9613  153.0632  -44.5200 O   0  0  0  0  0  0  0  0  0  0  0  0
   60.6020  155.0134  -43.1684 O   0  0  0  0  0  0  0  0  0  0  0  0
   71.7200  150.1037  -49.3622 O   0  0  0  0  0  0  0  0  0  0  0  0
   70.9126  152.0808  -49.1110 O   0  0  0  0  0  0  0  0  0  0  0  0
   66.4054  153.1502  -48.2533 S   0  0  0  0  0  0  0  0  0  0  0  0
   61.0141  153.7989  -43.8516 S   0  0  0  0  0  0  0  0  0  0  0  0
   63.9408  155.6466  -49.1112 H   0  0  0  0  0  0  0  0  0  0  0  0
   66.8595  154.2939  -52.6895 H   0  0  0  0  0  0  0  0  0  0  0  0
   67.9625  153.0256  -52.1673 H   0  0  0  0  0  0  0  0  0  0  0  0
   61.8944  151.8675  -43.0702 H   0  0  0  0  0  0  0  0  0  0  0  0
   61.5876  153.0968  -41.8369 H   0  0  0  0  0  0  0  0  0  0  0  0
   70.7555  148.9489  -47.2906 H   0  0  0  0  0  0  0  0  0  0  0  0
   68.7696  147.9701  -46.1857 H   0  0  0  0  0  0  0  0  0  0  0  0
   66.5145  148.7123  -46.8485 H   0  0  0  0  0  0  0  0  0  0  0  0
   66.2542  150.4404  -48.5691 H   0  0  0  0  0  0  0  0  0  0  0  0
   64.2909  152.6025  -47.1624 H   0  0  0  0  0  0  0  0  0  0  0  0
   62.9627  152.1927  -45.1674 H   0  0  0  0  0  0  0  0  0  0  0  0
   61.4978  156.2164  -45.2858 H   0  0  0  0  0  0  0  0  0  0  0  0
   62.8587  156.6417  -47.2931 H   0  0  0  0  0  0  0  0  0  0  0  0
  1  8  2  0
  2  9  1  0
  2 29  1  0
  3  7  1  0
  3 30  1  0
  3 31  1  0
  4 32  1  0
  4 33  1  0
  5 12  1  0
  6 27  1  0
  7  1  1  0
  7  6  2  0
  8  2  1  0
  8 27  1  0
  9 21  1  0
  9 17  2  0
 10  6  1  0
 10 11  1  0
 11 16  1  0
 11 12  2  0
 12 13  1  0
 13 14  2  0
 13 34  1  0
 14 35  1  0
 15 14  1  0
 15 36  1  0
 16 15  2  0
 16 37  1  0
 17 18  1  0
 17 38  1  0
 18 19  2  0
 18 39  1  0
 19 28  1  0
 20 19  1  0
 20 40  1  0
 21 20  2  0
 21 41  1  0
 22 10  2  0
 23 28  2  0
 25  5  1  0
 26  5  2  0
 28 24  2  0
 28  4  1  0
M  CHG  2   5   1  25  -1
M  END
>  <lm5_entropy_jk>  (1) 
23.933690845995674

>  <number_of_rotatable_bonds>  (1) 
6

>  <IC50_NM>  (1) 
20

>  <charge>  (1) 
0

$$$$
