3RMF
     RDKit          3D

 45 48  0  0  0  0  0  0  0  0999 V2000
   65.7841  154.4857  -50.4191 N   0  0  0  0  0  0  0  0  0  0  0  0
   64.4367  155.0820  -48.6146 N   0  0  0  0  0  0  0  0  0  0  0  0
   67.2686  153.5435  -51.9634 N   0  0  0  0  0  0  0  0  0  0  0  0
   61.7159  153.0245  -42.9380 N   0  0  0  0  0  0  0  0  0  0  0  0
   67.3295  152.8895  -49.6491 C   0  0  0  0  0  0  0  0  0  0  0  0
   66.8207  153.6381  -50.7167 C   0  0  0  0  0  0  0  0  0  0  0  0
   65.4550  154.3754  -49.1490 C   0  0  0  0  0  0  0  0  0  0  0  0
   63.6844  154.7665  -47.4724 C   0  0  0  0  0  0  0  0  0  0  0  0
   68.2797  151.8337  -49.7881 C   0  0  0  0  0  0  0  0  0  0  0  0
   68.6278  150.9333  -48.6379 C   0  0  0  0  0  0  0  0  0  0  0  0
   69.9771  150.5303  -48.5385 C   0  0  0  0  0  0  0  0  0  0  0  0
   70.3688  149.6902  -47.5418 C   0  0  0  0  0  0  0  0  0  0  0  0
   69.4567  149.2048  -46.5808 C   0  0  0  0  0  0  0  0  0  0  0  0
   68.1025  149.5931  -46.6814 C   0  0  0  0  0  0  0  0  0  0  0  0
   67.7085  150.4419  -47.7466 C   0  0  0  0  0  0  0  0  0  0  0  0
   62.9094  155.7816  -46.9155 C   0  0  0  0  0  0  0  0  0  0  0  0
   62.0969  155.5302  -45.8283 C   0  0  0  0  0  0  0  0  0  0  0  0
   62.0883  154.2610  -45.2778 C   0  0  0  0  0  0  0  0  0  0  0  0
   62.8463  153.2327  -45.8233 C   0  0  0  0  0  0  0  0  0  0  0  0
   63.6386  153.4833  -46.9225 C   0  0  0  0  0  0  0  0  0  0  0  0
   69.8542  148.3494  -45.5241 C   0  0  0  0  0  0  0  0  0  0  0  0
   68.9451  147.9398  -44.5944 C   0  0  0  0  0  0  0  0  0  0  0  0
   67.5958  148.3365  -44.6899 C   0  0  0  0  0  0  0  0  0  0  0  0
   67.1776  149.1323  -45.7155 C   0  0  0  0  0  0  0  0  0  0  0  0
   68.8525  151.6490  -50.8685 O   0  0  0  0  0  0  0  0  0  0  0  0
   59.9144  153.0466  -44.6931 O   0  0  0  0  0  0  0  0  0  0  0  0
   60.4144  155.0816  -43.4264 O   0  0  0  0  0  0  0  0  0  0  0  0
   66.4568  153.3138  -48.2049 S   0  0  0  0  0  0  0  0  0  0  0  0
   60.9123  153.8703  -44.0412 S   0  0  0  0  0  0  0  0  0  0  0  0
   63.9404  155.6857  -49.2683 H   0  0  0  0  0  0  0  0  0  0  0  0
   66.9001  154.1066  -52.7169 H   0  0  0  0  0  0  0  0  0  0  0  0
   68.0160  152.8769  -52.0911 H   0  0  0  0  0  0  0  0  0  0  0  0
   61.8631  152.0197  -43.2146 H   0  0  0  0  0  0  0  0  0  0  0  0
   61.3380  153.1693  -42.0139 H   0  0  0  0  0  0  0  0  0  0  0  0
   70.6818  150.8851  -49.2734 H   0  0  0  0  0  0  0  0  0  0  0  0
   71.3916  149.3542  -47.4997 H   0  0  0  0  0  0  0  0  0  0  0  0
   66.6574  150.6737  -47.8401 H   0  0  0  0  0  0  0  0  0  0  0  0
   62.9048  156.7553  -47.3736 H   0  0  0  0  0  0  0  0  0  0  0  0
   61.4618  156.3027  -45.4218 H   0  0  0  0  0  0  0  0  0  0  0  0
   62.8099  152.2379  -45.3972 H   0  0  0  0  0  0  0  0  0  0  0  0
   64.1743  152.6677  -47.3729 H   0  0  0  0  0  0  0  0  0  0  0  0
   70.8838  148.0168  -45.4961 H   0  0  0  0  0  0  0  0  0  0  0  0
   69.2239  147.2867  -43.7777 H   0  0  0  0  0  0  0  0  0  0  0  0
   66.8973  147.9856  -43.9476 H   0  0  0  0  0  0  0  0  0  0  0  0
   66.1360  149.4031  -45.8069 H   0  0  0  0  0  0  0  0  0  0  0  0
  1  7  2  0
  2  8  1  0
  2 30  1  0
  3  6  1  0
  3 31  1  0
  3 32  1  0
  4 33  1  0
  4 34  1  0
  5 28  1  0
  6  1  1  0
  6  5  2  0
  7  2  1  0
  7 28  1  0
  8 16  2  0
  8 20  1  0
  9  5  1  0
  9 10  1  0
 10 11  2  0
 10 15  1  0
 11 12  1  0
 11 35  1  0
 12 13  2  0
 12 36  1  0
 13 21  1  0
 14 13  1  0
 14 24  1  0
 15 14  2  0
 15 37  1  0
 16 17  1  0
 16 38  1  0
 17 18  2  0
 17 39  1  0
 18 29  1  0
 19 18  1  0
 19 40  1  0
 20 19  2  0
 20 41  1  0
 21 22  2  0
 21 42  1  0
 22 43  1  0
 23 22  1  0
 23 44  1  0
 24 23  2  0
 24 45  1  0
 25  9  2  0
 26 29  2  0
 29 27  2  0
 29  4  1  0
M  END
>  <lm5_entropy_jk>  (1) 
22.397995528352578

>  <number_of_rotatable_bonds>  (1) 
5

>  <IC50_NM>  (1) 
82000

>  <charge>  (1) 
0

$$$$
