3RMF
     RDKit          3D

 45 48  0  0  0  0  0  0  0  0999 V2000
   65.7817  154.4809  -50.4283 N   0  0  0  0  0  0  0  0  0  0  0  0
   64.4328  155.0806  -48.6274 N   0  0  0  0  0  0  0  0  0  0  0  0
   67.2628  153.5445  -51.9743 N   0  0  0  0  0  0  0  0  0  0  0  0
   61.6851  153.0587  -42.9590 N   0  0  0  0  0  0  0  0  0  0  0  0
   67.3382  152.9007  -49.6570 C   0  0  0  0  0  0  0  0  0  0  0  0
   66.8245  153.6419  -50.7251 C   0  0  0  0  0  0  0  0  0  0  0  0
   65.4493  154.3700  -49.1602 C   0  0  0  0  0  0  0  0  0  0  0  0
   63.6759  154.7677  -47.4882 C   0  0  0  0  0  0  0  0  0  0  0  0
   68.3079  151.8619  -49.8014 C   0  0  0  0  0  0  0  0  0  0  0  0
   68.6516  150.9400  -48.6680 C   0  0  0  0  0  0  0  0  0  0  0  0
   70.0019  150.5404  -48.5576 C   0  0  0  0  0  0  0  0  0  0  0  0
   70.3832  149.7032  -47.5545 C   0  0  0  0  0  0  0  0  0  0  0  0
   69.4634  149.2145  -46.6034 C   0  0  0  0  0  0  0  0  0  0  0  0
   68.1061  149.5870  -46.7219 C   0  0  0  0  0  0  0  0  0  0  0  0
   67.7240  150.4396  -47.7895 C   0  0  0  0  0  0  0  0  0  0  0  0
   62.8869  155.7809  -46.9465 C   0  0  0  0  0  0  0  0  0  0  0  0
   62.0655  155.5350  -45.8643 C   0  0  0  0  0  0  0  0  0  0  0  0
   62.0560  154.2701  -45.3037 C   0  0  0  0  0  0  0  0  0  0  0  0
   62.8241  153.2414  -45.8354 C   0  0  0  0  0  0  0  0  0  0  0  0
   63.6281  153.4883  -46.9283 C   0  0  0  0  0  0  0  0  0  0  0  0
   69.8645  148.3682  -45.5419 C   0  0  0  0  0  0  0  0  0  0  0  0
   68.9513  147.9462  -44.6234 C   0  0  0  0  0  0  0  0  0  0  0  0
   67.5964  148.3187  -44.7384 C   0  0  0  0  0  0  0  0  0  0  0  0
   67.1759  149.1091  -45.7680 C   0  0  0  0  0  0  0  0  0  0  0  0
   68.8976  151.7062  -50.8767 O   0  0  0  0  0  0  0  0  0  0  0  0
   59.8767  153.0613  -44.7136 O   0  0  0  0  0  0  0  0  0  0  0  0
   60.3756  155.1053  -43.4649 O   0  0  0  0  0  0  0  0  0  0  0  0
   66.4478  153.3101  -48.2181 S   0  0  0  0  0  0  0  0  0  0  0  0
   60.8764  153.8901  -44.0693 S   0  0  0  0  0  0  0  0  0  0  0  0
   63.9438  155.6948  -49.2766 H   0  0  0  0  0  0  0  0  0  0  0  0
   66.8997  154.1248  -52.7160 H   0  0  0  0  0  0  0  0  0  0  0  0
   68.0290  152.9013  -52.1067 H   0  0  0  0  0  0  0  0  0  0  0  0
   61.8522  152.0574  -43.2375 H   0  0  0  0  0  0  0  0  0  0  0  0
   61.2857  153.1932  -42.0422 H   0  0  0  0  0  0  0  0  0  0  0  0
   70.7165  150.8969  -49.2832 H   0  0  0  0  0  0  0  0  0  0  0  0
   71.4082  149.3772  -47.4953 H   0  0  0  0  0  0  0  0  0  0  0  0
   66.6748  150.6730  -47.8965 H   0  0  0  0  0  0  0  0  0  0  0  0
   62.8617  156.7457  -47.4226 H   0  0  0  0  0  0  0  0  0  0  0  0
   61.4184  156.3084  -45.4772 H   0  0  0  0  0  0  0  0  0  0  0  0
   62.7807  152.2461  -45.4081 H   0  0  0  0  0  0  0  0  0  0  0  0
   64.1618  152.6679  -47.3728 H   0  0  0  0  0  0  0  0  0  0  0  0
   70.8993  148.0527  -45.5017 H   0  0  0  0  0  0  0  0  0  0  0  0
   69.2320  147.2968  -43.8049 H   0  0  0  0  0  0  0  0  0  0  0  0
   66.8923  147.9490  -44.0103 H   0  0  0  0  0  0  0  0  0  0  0  0
   66.1295  149.3581  -45.8709 H   0  0  0  0  0  0  0  0  0  0  0  0
  1  7  2  0
  2  8  1  0
  2 30  1  0
  3  6  1  0
  3 31  1  0
  3 32  1  0
  4 33  1  0
  4 34  1  0
  5 28  1  0
  6  1  1  0
  6  5  2  0
  7  2  1  0
  7 28  1  0
  8 16  2  0
  8 20  1  0
  9  5  1  0
  9 10  1  0
 10 11  2  0
 10 15  1  0
 11 12  1  0
 11 35  1  0
 12 13  2  0
 12 36  1  0
 13 21  1  0
 14 13  1  0
 14 24  1  0
 15 14  2  0
 15 37  1  0
 16 17  1  0
 16 38  1  0
 17 18  2  0
 17 39  1  0
 18 29  1  0
 19 18  1  0
 19 40  1  0
 20 19  2  0
 20 41  1  0
 21 22  2  0
 21 42  1  0
 22 43  1  0
 23 22  1  0
 23 44  1  0
 24 23  2  0
 24 45  1  0
 25  9  2  0
 26 29  2  0
 29 27  2  0
 29  4  1  0
M  END
>  <lm5_entropy_jk>  (1) 
22.397995528352578

>  <number_of_rotatable_bonds>  (1) 
5

>  <IC50_NM>  (1) 
82000

>  <charge>  (1) 
0

$$$$
