3SQQ
     RDKit          3D

 42 44  0  0  0  0  0  0  0  0999 V2000
   65.8555  154.4318  -50.4151 N   0  0  0  0  0  0  0  0  0  0  0  0
   64.5264  154.8948  -48.5750 N   0  0  0  0  0  0  0  0  0  0  0  0
   67.2589  153.5446  -52.0556 N   0  0  0  0  0  0  0  0  0  0  0  0
   61.7472  152.8402  -42.7705 N   0  0  0  0  0  0  0  0  0  0  0  0
   67.4796  152.8349  -49.7683 C   0  0  0  0  0  0  0  0  0  0  0  0
   66.8943  153.6102  -50.7836 C   0  0  0  0  0  0  0  0  0  0  0  0
   65.5597  154.2292  -49.1507 C   0  0  0  0  0  0  0  0  0  0  0  0
   63.8047  154.6003  -47.4036 C   0  0  0  0  0  0  0  0  0  0  0  0
   68.3754  151.7407  -50.0044 C   0  0  0  0  0  0  0  0  0  0  0  0
   68.6517  150.7563  -48.9000 C   0  0  0  0  0  0  0  0  0  0  0  0
   69.9425  150.2559  -48.6777 C   0  0  0  0  0  0  0  0  0  0  0  0
   70.1326  149.3594  -47.6303 C   0  0  0  0  0  0  0  0  0  0  0  0
   69.0799  148.9087  -46.8516 C   0  0  0  0  0  0  0  0  0  0  0  0
   67.7947  149.3439  -47.1212 C   0  0  0  0  0  0  0  0  0  0  0  0
   67.5955  150.2634  -48.1362 C   0  0  0  0  0  0  0  0  0  0  0  0
   63.9028  153.4014  -46.6987 C   0  0  0  0  0  0  0  0  0  0  0  0
   63.1068  153.1573  -45.5870 C   0  0  0  0  0  0  0  0  0  0  0  0
   62.1929  154.1139  -45.1636 C   0  0  0  0  0  0  0  0  0  0  0  0
   62.0892  155.3158  -45.8542 C   0  0  0  0  0  0  0  0  0  0  0  0
   62.8859  155.5548  -46.9578 C   0  0  0  0  0  0  0  0  0  0  0  0
   71.1187  150.6219  -49.5374 C   0  0  0  0  0  0  0  0  0  0  0  0
   68.8943  151.5895  -51.1170 O   0  0  0  0  0  0  0  0  0  0  0  0
   60.6309  155.0147  -43.2472 O   0  0  0  0  0  0  0  0  0  0  0  0
   59.9719  152.9740  -44.4485 O   0  0  0  0  0  0  0  0  0  0  0  0
   66.5938  153.1372  -48.3061 S   0  0  0  0  0  0  0  0  0  0  0  0
   61.0110  153.7711  -43.8571 S   0  0  0  0  0  0  0  0  0  0  0  0
   64.0395  155.4978  -49.2259 H   0  0  0  0  0  0  0  0  0  0  0  0
   66.7995  154.0979  -52.7610 H   0  0  0  0  0  0  0  0  0  0  0  0
   68.0076  152.8999  -52.2668 H   0  0  0  0  0  0  0  0  0  0  0  0
   61.8874  151.8601  -43.1208 H   0  0  0  0  0  0  0  0  0  0  0  0
   62.5867  153.2815  -42.4013 H   0  0  0  0  0  0  0  0  0  0  0  0
   71.1207  148.9635  -47.4463 H   0  0  0  0  0  0  0  0  0  0  0  0
   69.2513  148.1785  -46.0718 H   0  0  0  0  0  0  0  0  0  0  0  0
   66.9534  148.9598  -46.5569 H   0  0  0  0  0  0  0  0  0  0  0  0
   66.5888  150.5721  -48.3544 H   0  0  0  0  0  0  0  0  0  0  0  0
   64.5623  152.6183  -47.0262 H   0  0  0  0  0  0  0  0  0  0  0  0
   63.1679  152.1955  -45.0894 H   0  0  0  0  0  0  0  0  0  0  0  0
   61.3618  156.0559  -45.5481 H   0  0  0  0  0  0  0  0  0  0  0  0
   62.7515  156.4711  -47.5125 H   0  0  0  0  0  0  0  0  0  0  0  0
   70.8974  150.4424  -50.5859 H   0  0  0  0  0  0  0  0  0  0  0  0
   71.9819  150.0249  -49.2500 H   0  0  0  0  0  0  0  0  0  0  0  0
   71.3653  151.6795  -49.4425 H   0  0  0  0  0  0  0  0  0  0  0  0
  1  7  2  0
  2  8  1  0
  2 27  1  0
  3  6  1  0
  3 28  1  0
  3 29  1  0
  4 30  1  0
  4 31  1  0
  5 25  1  0
  6  1  1  0
  6  5  2  0
  7  2  1  0
  7 25  1  0
  8 20  2  0
  8 16  1  0
  9  5  1  0
  9 10  1  0
 10 11  1  0
 10 15  2  0
 11 12  2  0
 12 13  1  0
 12 32  1  0
 13 33  1  0
 14 13  2  0
 14 34  1  0
 15 14  1  0
 15 35  1  0
 16 17  2  0
 16 36  1  0
 17 18  1  0
 17 37  1  0
 18 26  1  0
 19 18  2  0
 19 38  1  0
 20 19  1  0
 20 39  1  0
 21 11  1  0
 21 40  1  0
 21 41  1  0
 21 42  1  0
 22  9  2  0
 24 26  2  0
 26 23  2  0
 26  4  1  0
M  END
>  <lm5_entropy_jk>  (1) 
31.418959509749985

>  <number_of_rotatable_bonds>  (1) 
5

>  <IC50_NM>  (1) 
4800

>  <charge>  (1) 
0

$$$$
