3SQQ
     RDKit          3D

 42 44  0  0  0  0  0  0  0  0999 V2000
   65.8519  154.4285  -50.4127 N   0  0  0  0  0  0  0  0  0  0  0  0
   64.5234  154.8950  -48.5687 N   0  0  0  0  0  0  0  0  0  0  0  0
   67.2565  153.5438  -52.0529 N   0  0  0  0  0  0  0  0  0  0  0  0
   61.7457  152.8434  -42.7699 N   0  0  0  0  0  0  0  0  0  0  0  0
   67.4783  152.8334  -49.7667 C   0  0  0  0  0  0  0  0  0  0  0  0
   66.8921  153.6077  -50.7811 C   0  0  0  0  0  0  0  0  0  0  0  0
   65.5555  154.2277  -49.1477 C   0  0  0  0  0  0  0  0  0  0  0  0
   63.8001  154.5990  -47.3974 C   0  0  0  0  0  0  0  0  0  0  0  0
   68.3774  151.7419  -50.0039 C   0  0  0  0  0  0  0  0  0  0  0  0
   68.6529  150.7569  -48.8981 C   0  0  0  0  0  0  0  0  0  0  0  0
   69.9439  150.2568  -48.6760 C   0  0  0  0  0  0  0  0  0  0  0  0
   70.1340  149.3585  -47.6295 C   0  0  0  0  0  0  0  0  0  0  0  0
   69.0791  148.9039  -46.8548 C   0  0  0  0  0  0  0  0  0  0  0  0
   67.7940  149.3401  -47.1235 C   0  0  0  0  0  0  0  0  0  0  0  0
   67.5961  150.2628  -48.1353 C   0  0  0  0  0  0  0  0  0  0  0  0
   63.8967  153.3970  -46.6960 C   0  0  0  0  0  0  0  0  0  0  0  0
   63.0976  153.1521  -45.5865 C   0  0  0  0  0  0  0  0  0  0  0  0
   62.1843  154.1118  -45.1653 C   0  0  0  0  0  0  0  0  0  0  0  0
   62.0819  155.3156  -45.8533 C   0  0  0  0  0  0  0  0  0  0  0  0
   62.8817  155.5556  -46.9539 C   0  0  0  0  0  0  0  0  0  0  0  0
   71.1179  150.6240  -49.5367 C   0  0  0  0  0  0  0  0  0  0  0  0
   68.8980  151.5927  -51.1163 O   0  0  0  0  0  0  0  0  0  0  0  0
   60.6252  155.0161  -43.2500 O   0  0  0  0  0  0  0  0  0  0  0  0
   59.9652  152.9689  -44.4431 O   0  0  0  0  0  0  0  0  0  0  0  0
   66.5912  153.1323  -48.3029 S   0  0  0  0  0  0  0  0  0  0  0  0
   61.0042  153.7696  -43.8570 S   0  0  0  0  0  0  0  0  0  0  0  0
   64.0376  155.4992  -49.2198 H   0  0  0  0  0  0  0  0  0  0  0  0
   66.7979  154.0958  -52.7584 H   0  0  0  0  0  0  0  0  0  0  0  0
   68.0066  152.9030  -52.2655 H   0  0  0  0  0  0  0  0  0  0  0  0
   61.8821  151.8654  -43.1207 H   0  0  0  0  0  0  0  0  0  0  0  0
   62.5957  153.2811  -42.4249 H   0  0  0  0  0  0  0  0  0  0  0  0
   71.1245  148.9634  -47.4478 H   0  0  0  0  0  0  0  0  0  0  0  0
   69.2539  148.1734  -46.0751 H   0  0  0  0  0  0  0  0  0  0  0  0
   66.9544  148.9530  -46.5602 H   0  0  0  0  0  0  0  0  0  0  0  0
   66.5893  150.5698  -48.3534 H   0  0  0  0  0  0  0  0  0  0  0  0
   64.5569  152.6133  -47.0236 H   0  0  0  0  0  0  0  0  0  0  0  0
   63.1580  152.1898  -45.0871 H   0  0  0  0  0  0  0  0  0  0  0  0
   61.3580  156.0578  -45.5421 H   0  0  0  0  0  0  0  0  0  0  0  0
   62.7510  156.4741  -47.5067 H   0  0  0  0  0  0  0  0  0  0  0  0
   70.9009  150.4387  -50.5841 H   0  0  0  0  0  0  0  0  0  0  0  0
   71.9832  150.0348  -49.2457 H   0  0  0  0  0  0  0  0  0  0  0  0
   71.3605  151.6818  -49.4483 H   0  0  0  0  0  0  0  0  0  0  0  0
  1  7  2  0
  2  8  1  0
  2 27  1  0
  3  6  1  0
  3 28  1  0
  3 29  1  0
  4 30  1  0
  4 31  1  0
  5 25  1  0
  6  1  1  0
  6  5  2  0
  7  2  1  0
  7 25  1  0
  8 20  1  0
  8 16  2  0
  9  5  1  0
  9 10  1  0
 10 11  2  0
 10 15  1  0
 11 12  1  0
 12 13  2  0
 12 32  1  0
 13 33  1  0
 14 13  1  0
 14 34  1  0
 15 14  2  0
 15 35  1  0
 16 17  1  0
 16 36  1  0
 17 18  2  0
 17 37  1  0
 18 26  1  0
 19 18  1  0
 19 38  1  0
 20 19  2  0
 20 39  1  0
 21 11  1  0
 21 40  1  0
 21 41  1  0
 21 42  1  0
 22  9  2  0
 24 26  2  0
 26 23  2  0
 26  4  1  0
M  END
>  <lm5_entropy_jk>  (1) 
31.418959509749985

>  <number_of_rotatable_bonds>  (1) 
5

>  <IC50_NM>  (1) 
4800

>  <charge>  (1) 
0

$$$$
