3RJC
     RDKit          3D

 34 36  0  0  0  0  0  0  0  0999 V2000
   65.9144  154.3008  -50.2455 N   0  0  0  0  0  0  0  0  0  0  0  0
   66.9938  153.5254  -50.5735 C   0  0  0  0  0  0  0  0  0  0  0  0
   67.4743  153.5391  -51.8168 N   0  0  0  0  0  0  0  0  0  0  0  0
   67.5090  152.7301  -49.5555 C   0  0  0  0  0  0  0  0  0  0  0  0
   68.5614  151.7767  -49.6867 C   0  0  0  0  0  0  0  0  0  0  0  0
   68.7258  150.7721  -48.5801 C   0  0  0  0  0  0  0  0  0  0  0  0
   67.6527  149.9883  -48.1595 C   0  0  0  0  0  0  0  0  0  0  0  0
   67.8160  149.0874  -47.1219 C   0  0  0  0  0  0  0  0  0  0  0  0
   69.0499  148.9642  -46.5001 C   0  0  0  0  0  0  0  0  0  0  0  0
   70.1244  149.7290  -46.9293 C   0  0  0  0  0  0  0  0  0  0  0  0
   69.9654  150.6293  -47.9733 C   0  0  0  0  0  0  0  0  0  0  0  0
   69.3186  151.7849  -50.6571 O   0  0  0  0  0  0  0  0  0  0  0  0
   66.5063  152.9086  -48.1474 S   0  0  0  0  0  0  0  0  0  0  0  0
   65.5209  154.0267  -49.0191 C   0  0  0  0  0  0  0  0  0  0  0  0
   64.4268  154.6412  -48.5034 N   0  0  0  0  0  0  0  0  0  0  0  0
   63.7397  154.3706  -47.3087 C   0  0  0  0  0  0  0  0  0  0  0  0
   62.8288  155.3372  -46.8767 C   0  0  0  0  0  0  0  0  0  0  0  0
   62.1803  155.1477  -45.6779 C   0  0  0  0  0  0  0  0  0  0  0  0
   62.3770  154.0337  -44.8839 C   0  0  0  0  0  0  0  0  0  0  0  0
   63.2472  153.0640  -45.3516 C   0  0  0  0  0  0  0  0  0  0  0  0
   63.9172  153.2114  -46.5565 C   0  0  0  0  0  0  0  0  0  0  0  0
   61.3255  156.1029  -45.2600 F   0  0  0  0  0  0  0  0  0  0  0  0
   67.0504  154.1065  -52.5299 H   0  0  0  0  0  0  0  0  0  0  0  0
   68.2768  152.9538  -51.9831 H   0  0  0  0  0  0  0  0  0  0  0  0
   66.6876  150.0701  -48.6387 H   0  0  0  0  0  0  0  0  0  0  0  0
   66.9777  148.4903  -46.7856 H   0  0  0  0  0  0  0  0  0  0  0  0
   69.1609  148.2544  -45.6897 H   0  0  0  0  0  0  0  0  0  0  0  0
   71.0733  149.6213  -46.4296 H   0  0  0  0  0  0  0  0  0  0  0  0
   70.7841  151.2426  -48.3154 H   0  0  0  0  0  0  0  0  0  0  0  0
   63.9170  155.2064  -49.1630 H   0  0  0  0  0  0  0  0  0  0  0  0
   62.6120  156.2028  -47.4839 H   0  0  0  0  0  0  0  0  0  0  0  0
   61.8696  153.9281  -43.9380 H   0  0  0  0  0  0  0  0  0  0  0  0
   63.4024  152.1640  -44.7692 H   0  0  0  0  0  0  0  0  0  0  0  0
   64.5395  152.4001  -46.8923 H   0  0  0  0  0  0  0  0  0  0  0  0
  1 14  2  0
  2  1  1  0
  2  4  2  0
  3  2  1  0
  3 23  1  0
  3 24  1  0
  4 13  1  0
  5  4  1  0
  5  6  1  0
  6 11  1  0
  6  7  2  0
  7  8  1  0
  7 25  1  0
  8  9  2  0
  8 26  1  0
  9 27  1  0
 10  9  1  0
 10 28  1  0
 11 10  2  0
 11 29  1  0
 12  5  2  0
 14 15  1  0
 14 13  1  0
 15 16  1  0
 15 30  1  0
 16 17  2  0
 16 21  1  0
 17 18  1  0
 17 31  1  0
 18 22  1  0
 18 19  2  0
 19 32  1  0
 20 19  1  0
 20 33  1  0
 21 20  2  0
 21 34  1  0
M  END
>  <lm5_entropy_jk>  (1) 
20.581653483104166

>  <number_of_rotatable_bonds>  (1) 
4

>  <IC50_NM>  (1) 
5700

>  <charge>  (1) 
0

$$$$
