3R8Z
     RDKit          3D

 30 31  0  0  1  0  0  0  0  0999 V2000
   65.8836  154.5734  -50.6224 N   0  0  0  0  0  0  0  0  0  0  0  0
   67.4378  153.5071  -51.9962 N   0  0  0  0  0  0  0  0  0  0  0  0
   68.9643  149.3024  -46.3495 N   0  0  0  0  0  0  0  0  0  0  0  0
   64.5182  155.3825  -48.9182 N   0  0  0  0  0  0  0  0  0  0  0  0
   66.8823  153.6590  -50.7949 C   0  0  0  0  0  0  0  0  0  0  0  0
   67.2625  152.9235  -49.6656 C   0  0  0  0  0  0  0  0  0  0  0  0
   68.2843  151.9319  -49.6760 C   0  0  0  0  0  0  0  0  0  0  0  0
   68.4799  151.0042  -48.5051 C   0  0  0  0  0  0  0  0  0  0  0  0
   67.4308  150.4109  -47.8104 C   0  0  0  0  0  0  0  0  0  0  0  0
   67.7197  149.5687  -46.7433 C   0  0  0  0  0  0  0  0  0  0  0  0
   69.9597  149.8153  -47.0594 C   0  0  0  0  0  0  0  0  0  0  0  0
   69.7759  150.6701  -48.1383 C   0  0  0  0  0  0  0  0  0  0  0  0
   65.4491  154.5308  -49.3813 C   0  0  0  0  0  0  0  0  0  0  0  0
   63.9032  155.2712  -47.6053 C   0  0  0  0  0  0  0  0  0  0  0  0
   62.9851  154.0955  -47.4031 C   0  0  0  0  0  0  0  0  0  0  0  0
   62.9086  153.4363  -46.2580 C   0  0  0  0  0  0  0  0  0  0  0  0
   69.0509  151.8137  -50.6371 O   0  0  0  0  0  0  0  0  0  0  0  0
   66.2071  153.3684  -48.3435 S   0  0  0  0  0  0  0  0  0  0  0  0
   67.1538  154.0738  -52.7746 H   0  0  0  0  0  0  0  0  0  0  0  0
   68.2258  152.8776  -52.0316 H   0  0  0  0  0  0  0  0  0  0  0  0
   66.3972  150.5605  -48.0869 H   0  0  0  0  0  0  0  0  0  0  0  0
   66.9181  149.0955  -46.1866 H   0  0  0  0  0  0  0  0  0  0  0  0
   70.9616  149.5462  -46.7433 H   0  0  0  0  0  0  0  0  0  0  0  0
   70.6190  151.0561  -48.6904 H   0  0  0  0  0  0  0  0  0  0  0  0
   63.9674  155.8438  -49.6248 H   0  0  0  0  0  0  0  0  0  0  0  0
   63.3336  156.1871  -47.4553 H   0  0  0  0  0  0  0  0  0  0  0  0
   64.6723  155.2477  -46.8349 H   0  0  0  0  0  0  0  0  0  0  0  0
   62.3395  153.8252  -48.2314 H   0  0  0  0  0  0  0  0  0  0  0  0
   63.5304  153.6860  -45.4038 H   0  0  0  0  0  0  0  0  0  0  0  0
   62.2152  152.6184  -46.1092 H   0  0  0  0  0  0  0  0  0  0  0  0
  1  5  1  0
  1 13  2  0
  2  5  1  0
  2 19  1  0
  2 20  1  0
  3 10  2  0
  3 11  1  0
  4 13  1  0
  4 14  1  0
  4 25  1  0
  5  6  2  0
  6 18  1  0
  7  6  1  0
  7  8  1  0
  7 17  2  0
  8  9  2  0
  8 12  1  0
  9 10  1  0
  9 21  1  0
 10 22  1  0
 11 12  2  0
 11 23  1  0
 12 24  1  0
 13 18  1  0
 14 15  1  0
 14 26  1  0
 14 27  1  0
 15 16  2  0
 15 28  1  0
 16 29  1  0
 16 30  1  0
M  END
>  <lm5_entropy_jk>  (1) 
22.952794734129974

>  <number_of_rotatable_bonds>  (1) 
5

>  <IC50_NM>  (1) 
49000

>  <charge>  (1) 
0

$$$$
