3QTW
     RDKit          3D

 33 35  0  0  1  0  0  0  0  0999 V2000
   65.7942  154.3197  -50.2784 N   0  0  0  0  0  0  0  0  0  0  0  0
   67.3505  153.6976  -51.9111 N   0  0  0  0  0  0  0  0  0  0  0  0
   70.8259  149.7635  -47.8375 N   0  0  0  0  0  0  0  0  0  0  0  0
   64.3798  154.5658  -48.4536 N   0  0  0  0  0  0  0  0  0  0  0  0
   66.9148  153.6363  -50.6550 C   0  0  0  0  0  0  0  0  0  0  0  0
   67.5032  152.8372  -49.6672 C   0  0  0  0  0  0  0  0  0  0  0  0
   68.6717  152.0464  -49.8637 C   0  0  0  0  0  0  0  0  0  0  0  0
   69.0520  150.9540  -48.8961 C   0  0  0  0  0  0  0  0  0  0  0  0
   70.3958  150.7460  -48.6261 C   0  0  0  0  0  0  0  0  0  0  0  0
   69.9250  148.9355  -47.3049 C   0  0  0  0  0  0  0  0  0  0  0  0
   68.5654  149.0388  -47.5417 C   0  0  0  0  0  0  0  0  0  0  0  0
   68.1255  150.0746  -48.3466 C   0  0  0  0  0  0  0  0  0  0  0  0
   65.4664  154.0283  -49.0328 C   0  0  0  0  0  0  0  0  0  0  0  0
   63.6964  154.2075  -47.2736 C   0  0  0  0  0  0  0  0  0  0  0  0
   62.8001  155.1529  -46.7698 C   0  0  0  0  0  0  0  0  0  0  0  0
   62.0233  154.8565  -45.6648 C   0  0  0  0  0  0  0  0  0  0  0  0
   62.1289  153.6222  -45.0379 C   0  0  0  0  0  0  0  0  0  0  0  0
   63.0182  152.6822  -45.5321 C   0  0  0  0  0  0  0  0  0  0  0  0
   63.7966  152.9669  -46.6470 C   0  0  0  0  0  0  0  0  0  0  0  0
   69.3906  152.2025  -50.8517 O   0  0  0  0  0  0  0  0  0  0  0  0
   66.5467  152.9424  -48.2140 S   0  0  0  0  0  0  0  0  0  0  0  0
   66.9369  154.3121  -52.5975 H   0  0  0  0  0  0  0  0  0  0  0  0
   68.2370  153.2525  -52.0866 H   0  0  0  0  0  0  0  0  0  0  0  0
   71.1397  151.3946  -49.0738 H   0  0  0  0  0  0  0  0  0  0  0  0
   70.3133  148.1437  -46.6778 H   0  0  0  0  0  0  0  0  0  0  0  0
   67.8811  148.3229  -47.1166 H   0  0  0  0  0  0  0  0  0  0  0  0
   67.0734  150.1799  -48.5734 H   0  0  0  0  0  0  0  0  0  0  0  0
   63.8536  155.1992  -49.0535 H   0  0  0  0  0  0  0  0  0  0  0  0
   62.6806  156.1015  -47.2726 H   0  0  0  0  0  0  0  0  0  0  0  0
   61.3166  155.5943  -45.3106 H   0  0  0  0  0  0  0  0  0  0  0  0
   61.5227  153.3934  -44.1723 H   0  0  0  0  0  0  0  0  0  0  0  0
   63.0918  151.7129  -45.0584 H   0  0  0  0  0  0  0  0  0  0  0  0
   64.4351  152.1998  -47.0471 H   0  0  0  0  0  0  0  0  0  0  0  0
  1  5  1  0
  1 13  2  0
  2  5  1  0
  2 22  1  0
  2 23  1  0
  3  9  2  0
  3 10  1  0
  4 13  1  0
  4 14  1  0
  4 28  1  0
  5  6  2  0
  6 21  1  0
  7  6  1  0
  7  8  1  0
  7 20  2  0
  8  9  1  0
  8 12  2  0
  9 24  1  0
 10 11  2  0
 10 25  1  0
 11 12  1  0
 11 26  1  0
 12 27  1  0
 13 21  1  0
 14 15  2  0
 14 19  1  0
 15 16  1  0
 15 29  1  0
 16 17  2  0
 16 30  1  0
 17 18  1  0
 17 31  1  0
 18 19  2  0
 18 32  1  0
 19 33  1  0
M  END
>  <lm5_entropy_jk>  (1) 
20.66385753466715

>  <number_of_rotatable_bonds>  (1) 
4

>  <IC50_NM>  (1) 
650

>  <charge>  (1) 
0

$$$$
