3R9D
     RDKit          3D

 41 43  0  0  0  0  0  0  0  0999 V2000
   65.4671  154.2820  -50.7856 N   0  0  0  0  0  0  0  0  0  0  0  0
   63.8141  154.7980  -49.2287 N   0  0  0  0  0  0  0  0  0  0  0  0
   68.4325  151.4644  -48.4579 N   0  0  0  0  0  0  0  0  0  0  0  0
   67.2840  153.5227  -52.0589 N   0  0  0  0  0  0  0  0  0  0  0  0
   61.0897  153.2352  -43.3632 N   0  0  0  0  0  0  0  0  0  0  0  0
   67.0765  152.9591  -49.7279 C   0  0  0  0  0  0  0  0  0  0  0  0
   66.6471  153.5802  -50.8917 C   0  0  0  0  0  0  0  0  0  0  0  0
   64.9546  154.1688  -49.5862 C   0  0  0  0  0  0  0  0  0  0  0  0
   63.0327  154.5766  -48.0867 C   0  0  0  0  0  0  0  0  0  0  0  0
   68.2534  152.1434  -49.6462 C   0  0  0  0  0  0  0  0  0  0  0  0
   62.3014  155.6515  -47.5859 C   0  0  0  0  0  0  0  0  0  0  0  0
   61.4882  155.4940  -46.4809 C   0  0  0  0  0  0  0  0  0  0  0  0
   61.4094  154.2527  -45.8748 C   0  0  0  0  0  0  0  0  0  0  0  0
   62.1128  153.1620  -46.3740 C   0  0  0  0  0  0  0  0  0  0  0  0
   62.9175  153.3192  -47.4855 C   0  0  0  0  0  0  0  0  0  0  0  0
   69.3867  150.4840  -48.1666 C   0  0  0  0  0  0  0  0  0  0  0  0
   69.1085  149.6394  -47.0895 C   0  0  0  0  0  0  0  0  0  0  0  0
   70.0032  148.6644  -46.7114 C   0  0  0  0  0  0  0  0  0  0  0  0
   71.1995  148.5115  -47.3986 C   0  0  0  0  0  0  0  0  0  0  0  0
   71.4329  149.3447  -48.4652 C   0  0  0  0  0  0  0  0  0  0  0  0
   70.5738  150.3342  -48.8851 C   0  0  0  0  0  0  0  0  0  0  0  0
   69.0510  152.0445  -50.5780 O   0  0  0  0  0  0  0  0  0  0  0  0
   59.2748  153.0827  -44.9707 O   0  0  0  0  0  0  0  0  0  0  0  0
   59.8485  155.2948  -44.0851 O   0  0  0  0  0  0  0  0  0  0  0  0
   65.9040  153.2257  -48.4643 S   0  0  0  0  0  0  0  0  0  0  0  0
   60.3017  154.0040  -44.5401 S   0  0  0  0  0  0  0  0  0  0  0  0
   72.6108  149.1743  -49.1545 F   0  0  0  0  0  0  0  0  0  0  0  0
   63.4758  155.5355  -49.8492 H   0  0  0  0  0  0  0  0  0  0  0  0
   67.6798  151.5286  -47.7956 H   0  0  0  0  0  0  0  0  0  0  0  0
   66.9540  154.0298  -52.8660 H   0  0  0  0  0  0  0  0  0  0  0  0
   68.1417  152.9946  -52.0614 H   0  0  0  0  0  0  0  0  0  0  0  0
   61.1980  152.2288  -43.5578 H   0  0  0  0  0  0  0  0  0  0  0  0
   61.9243  153.6891  -43.0221 H   0  0  0  0  0  0  0  0  0  0  0  0
   62.3363  156.5931  -48.1065 H   0  0  0  0  0  0  0  0  0  0  0  0
   60.8958  156.3140  -46.1089 H   0  0  0  0  0  0  0  0  0  0  0  0
   62.0093  152.1956  -45.8998 H   0  0  0  0  0  0  0  0  0  0  0  0
   63.4143  152.4609  -47.9059 H   0  0  0  0  0  0  0  0  0  0  0  0
   68.1657  149.7301  -46.5662 H   0  0  0  0  0  0  0  0  0  0  0  0
   69.7492  147.9831  -45.9149 H   0  0  0  0  0  0  0  0  0  0  0  0
   71.8947  147.7178  -47.1662 H   0  0  0  0  0  0  0  0  0  0  0  0
   70.8002  150.9430  -49.7426 H   0  0  0  0  0  0  0  0  0  0  0  0
  1  8  2  0
  2  9  1  0
  2 28  1  0
  3 16  1  0
  3 29  1  0
  4  7  1  0
  4 30  1  0
  4 31  1  0
  5 32  1  0
  5 33  1  0
  6 25  1  0
  7  1  1  0
  7  6  2  0
  8  2  1  0
  8 25  1  0
  9 11  2  0
  9 15  1  0
 10  6  1  0
 10  3  1  0
 11 12  1  0
 11 34  1  0
 12 13  2  0
 12 35  1  0
 13 26  1  0
 14 13  1  0
 14 36  1  0
 15 14  2  0
 15 37  1  0
 16 17  2  0
 17 18  1  0
 17 38  1  0
 18 39  1  0
 19 18  2  0
 19 40  1  0
 20 19  1  0
 21 20  2  0
 21 16  1  0
 21 41  1  0
 22 10  2  0
 23 26  2  0
 26 24  2  0
 26  5  1  0
 27 20  1  0
M  END
>  <lm5_entropy_jk>  (1) 
21.052089499889224

>  <number_of_rotatable_bonds>  (1) 
6

>  <IC50_NM>  (1) 
71000

>  <charge>  (1) 
0

$$$$
