3R9D
     RDKit          3D

 41 43  0  0  0  0  0  0  0  0999 V2000
   65.4264  154.2625  -50.7776 N   0  0  0  0  0  0  0  0  0  0  0  0
   63.7468  154.8376  -49.2699 N   0  0  0  0  0  0  0  0  0  0  0  0
   68.1892  151.3283  -48.3733 N   0  0  0  0  0  0  0  0  0  0  0  0
   67.2400  153.4199  -52.0009 N   0  0  0  0  0  0  0  0  0  0  0  0
   61.0322  153.2647  -43.4267 N   0  0  0  0  0  0  0  0  0  0  0  0
   66.9778  152.9294  -49.6569 C   0  0  0  0  0  0  0  0  0  0  0  0
   66.5910  153.5331  -50.8432 C   0  0  0  0  0  0  0  0  0  0  0  0
   64.8818  154.1818  -49.5901 C   0  0  0  0  0  0  0  0  0  0  0  0
   62.9455  154.6227  -48.1428 C   0  0  0  0  0  0  0  0  0  0  0  0
   68.1178  152.0697  -49.5356 C   0  0  0  0  0  0  0  0  0  0  0  0
   62.2346  155.7016  -47.6253 C   0  0  0  0  0  0  0  0  0  0  0  0
   61.4250  155.5412  -46.5170 C   0  0  0  0  0  0  0  0  0  0  0  0
   61.3248  154.2910  -45.9331 C   0  0  0  0  0  0  0  0  0  0  0  0
   61.9992  153.1940  -46.4581 C   0  0  0  0  0  0  0  0  0  0  0  0
   62.7995  153.3556  -47.5695 C   0  0  0  0  0  0  0  0  0  0  0  0
   69.1604  150.3929  -48.0098 C   0  0  0  0  0  0  0  0  0  0  0  0
   68.8976  149.5910  -46.8957 C   0  0  0  0  0  0  0  0  0  0  0  0
   69.8314  148.6783  -46.4553 C   0  0  0  0  0  0  0  0  0  0  0  0
   71.0485  148.5434  -47.1137 C   0  0  0  0  0  0  0  0  0  0  0  0
   71.2539  149.3210  -48.2268 C   0  0  0  0  0  0  0  0  0  0  0  0
   70.3607  150.2469  -48.7040 C   0  0  0  0  0  0  0  0  0  0  0  0
   68.9684  151.9850  -50.4209 O   0  0  0  0  0  0  0  0  0  0  0  0
   59.2059  153.0937  -45.0224 O   0  0  0  0  0  0  0  0  0  0  0  0
   59.7569  155.3100  -44.1368 O   0  0  0  0  0  0  0  0  0  0  0  0
   65.7816  153.2439  -48.4299 S   0  0  0  0  0  0  0  0  0  0  0  0
   60.2257  154.0247  -44.5982 S   0  0  0  0  0  0  0  0  0  0  0  0
   72.4308  149.1700  -48.9263 F   0  0  0  0  0  0  0  0  0  0  0  0
   63.4336  155.5765  -49.9017 H   0  0  0  0  0  0  0  0  0  0  0  0
   67.3930  151.3792  -47.7634 H   0  0  0  0  0  0  0  0  0  0  0  0
   66.9670  153.9582  -52.8092 H   0  0  0  0  0  0  0  0  0  0  0  0
   68.1088  152.9124  -51.9632 H   0  0  0  0  0  0  0  0  0  0  0  0
   61.1164  152.2564  -43.6172 H   0  0  0  0  0  0  0  0  0  0  0  0
   61.8843  153.7074  -43.1159 H   0  0  0  0  0  0  0  0  0  0  0  0
   62.2829  156.6486  -48.1343 H   0  0  0  0  0  0  0  0  0  0  0  0
   60.8507  156.3661  -46.1272 H   0  0  0  0  0  0  0  0  0  0  0  0
   61.8750  152.2209  -46.0038 H   0  0  0  0  0  0  0  0  0  0  0  0
   63.2694  152.4951  -48.0146 H   0  0  0  0  0  0  0  0  0  0  0  0
   67.9419  149.6638  -46.3915 H   0  0  0  0  0  0  0  0  0  0  0  0
   69.5926  148.0333  -45.6235 H   0  0  0  0  0  0  0  0  0  0  0  0
   71.7781  147.8010  -46.8255 H   0  0  0  0  0  0  0  0  0  0  0  0
   70.5764  150.8180  -49.5878 H   0  0  0  0  0  0  0  0  0  0  0  0
  1  8  2  0
  2  9  1  0
  2 28  1  0
  3 16  1  0
  3 29  1  0
  4  7  1  0
  4 30  1  0
  4 31  1  0
  5 32  1  0
  5 33  1  0
  6 25  1  0
  7  1  1  0
  7  6  2  0
  8  2  1  0
  8 25  1  0
  9 11  2  0
  9 15  1  0
 10  6  1  0
 10  3  1  0
 11 12  1  0
 11 34  1  0
 12 13  2  0
 12 35  1  0
 13 26  1  0
 14 13  1  0
 14 36  1  0
 15 14  2  0
 15 37  1  0
 16 17  2  0
 17 18  1  0
 17 38  1  0
 18 39  1  0
 19 18  2  0
 19 40  1  0
 20 19  1  0
 21 20  2  0
 21 16  1  0
 21 41  1  0
 22 10  2  0
 23 26  2  0
 26 24  2  0
 26  5  1  0
 27 20  1  0
M  END
>  <lm5_entropy_jk>  (1) 
21.052089499889224

>  <number_of_rotatable_bonds>  (1) 
6

>  <IC50_NM>  (1) 
71000

>  <charge>  (1) 
0

$$$$
