3QTU
     RDKit          3D

 44 46  0  0  0  0  0  0  0  0999 V2000
   65.7637  154.5186  -50.3842 N   0  0  0  0  0  0  0  0  0  0  0  0
   64.5318  154.9994  -48.4773 N   0  0  0  0  0  0  0  0  0  0  0  0
   67.1980  153.7326  -52.0605 N   0  0  0  0  0  0  0  0  0  0  0  0
   61.7462  152.8704  -42.8443 N   0  0  0  0  0  0  0  0  0  0  0  0
   70.3385  147.0160  -45.8610 N   0  0  0  0  0  0  0  0  0  0  0  0
   67.3426  152.8790  -49.8273 C   0  0  0  0  0  0  0  0  0  0  0  0
   66.7872  153.7124  -50.8011 C   0  0  0  0  0  0  0  0  0  0  0  0
   65.4907  154.2966  -49.1142 C   0  0  0  0  0  0  0  0  0  0  0  0
   63.8160  154.6731  -47.3206 C   0  0  0  0  0  0  0  0  0  0  0  0
   68.3292  151.8894  -50.0854 C   0  0  0  0  0  0  0  0  0  0  0  0
   68.7349  150.9558  -48.9778 C   0  0  0  0  0  0  0  0  0  0  0  0
   62.9923  155.6701  -46.7966 C   0  0  0  0  0  0  0  0  0  0  0  0
   62.1785  155.4158  -45.7125 C   0  0  0  0  0  0  0  0  0  0  0  0
   62.2061  154.1592  -45.1299 C   0  0  0  0  0  0  0  0  0  0  0  0
   63.0234  153.1543  -45.6324 C   0  0  0  0  0  0  0  0  0  0  0  0
   63.8288  153.4115  -46.7233 C   0  0  0  0  0  0  0  0  0  0  0  0
   70.0897  150.8284  -48.7136 C   0  0  0  0  0  0  0  0  0  0  0  0
   70.5106  150.0495  -47.6539 C   0  0  0  0  0  0  0  0  0  0  0  0
   69.5726  149.3940  -46.8737 C   0  0  0  0  0  0  0  0  0  0  0  0
   68.2178  149.4506  -47.1682 C   0  0  0  0  0  0  0  0  0  0  0  0
   67.8044  150.2383  -48.2298 C   0  0  0  0  0  0  0  0  0  0  0  0
   68.8808  151.7908  -51.1831 O   0  0  0  0  0  0  0  0  0  0  0  0
   59.9715  153.0074  -44.6315 O   0  0  0  0  0  0  0  0  0  0  0  0
   60.5120  154.9780  -43.2905 O   0  0  0  0  0  0  0  0  0  0  0  0
   71.4322  149.0467  -45.1175 O   0  0  0  0  0  0  0  0  0  0  0  0
   69.0735  148.6639  -44.4491 O   0  0  0  0  0  0  0  0  0  0  0  0
   66.5012  153.1270  -48.3245 S   0  0  0  0  0  0  0  0  0  0  0  0
   60.9875  153.7707  -43.9352 S   0  0  0  0  0  0  0  0  0  0  0  0
   70.1058  148.5261  -45.4268 S   0  0  0  0  0  0  0  0  0  0  0  0
   64.0252  155.6400  -49.0827 H   0  0  0  0  0  0  0  0  0  0  0  0
   66.7870  154.3257  -52.7656 H   0  0  0  0  0  0  0  0  0  0  0  0
   67.9555  153.1023  -52.2740 H   0  0  0  0  0  0  0  0  0  0  0  0
   61.8896  151.8749  -43.1570 H   0  0  0  0  0  0  0  0  0  0  0  0
   61.3139  152.9659  -41.9374 H   0  0  0  0  0  0  0  0  0  0  0  0
   71.2631  146.6534  -45.6622 H   0  0  0  0  0  0  0  0  0  0  0  0
   69.5339  146.3879  -45.9301 H   0  0  0  0  0  0  0  0  0  0  0  0
   62.9376  156.6253  -47.2917 H   0  0  0  0  0  0  0  0  0  0  0  0
   61.5067  156.1752  -45.3411 H   0  0  0  0  0  0  0  0  0  0  0  0
   63.0213  152.1640  -45.1946 H   0  0  0  0  0  0  0  0  0  0  0  0
   64.4039  152.6037  -47.1375 H   0  0  0  0  0  0  0  0  0  0  0  0
   70.8056  151.3523  -49.3265 H   0  0  0  0  0  0  0  0  0  0  0  0
   71.5551  149.9461  -47.4252 H   0  0  0  0  0  0  0  0  0  0  0  0
   67.4995  148.9120  -46.5660 H   0  0  0  0  0  0  0  0  0  0  0  0
   66.7513  150.2886  -48.4631 H   0  0  0  0  0  0  0  0  0  0  0  0
  1  8  2  0
  2  9  1  0
  2 30  1  0
  3  7  1  0
  3 31  1  0
  3 32  1  0
  4 33  1  0
  4 34  1  0
  5 29  1  0
  5 35  1  0
  5 36  1  0
  6 27  1  0
  7  1  1  0
  7  6  2  0
  8  2  1  0
  8 27  1  0
  9 12  2  0
  9 16  1  0
 10  6  1  0
 10 11  1  0
 11 17  2  0
 11 21  1  0
 12 13  1  0
 12 37  1  0
 13 14  2  0
 13 38  1  0
 14 28  1  0
 15 14  1  0
 15 39  1  0
 16 15  2  0
 16 40  1  0
 17 18  1  0
 17 41  1  0
 18 19  2  0
 18 42  1  0
 19 29  1  0
 20 19  1  0
 20 43  1  0
 21 20  2  0
 21 44  1  0
 22 10  2  0
 23 28  2  0
 28 24  2  0
 28  4  1  0
 29 25  2  0
 29 26  2  0
M  END
>  <lm5_entropy_jk>  (1) 
23.933690845995674

>  <number_of_rotatable_bonds>  (1) 
6

>  <IC50_NM>  (1) 
70

>  <charge>  (1) 
0

$$$$
