3RAK
     RDKit          3D

 39 41  0  0  1  0  0  0  0  0999 V2000
   65.8519  154.4004  -50.3259 N   0  0  0  0  0  0  0  0  0  0  0  0
   67.3842  153.5770  -51.8996 N   0  0  0  0  0  0  0  0  0  0  0  0
   64.4772  154.8758  -48.5062 N   0  0  0  0  0  0  0  0  0  0  0  0
   61.7834  152.8420  -42.8066 N   0  0  0  0  0  0  0  0  0  0  0  0
   68.8660  148.7765  -46.7562 C   0  0  0  0  0  0  0  0  0  0  0  0
   69.9709  149.4432  -47.2617 C   0  0  0  0  0  0  0  0  0  0  0  0
   69.8211  150.4069  -48.2476 C   0  0  0  0  0  0  0  0  0  0  0  0
   67.4447  150.0484  -48.2078 C   0  0  0  0  0  0  0  0  0  0  0  0
   67.5991  149.0713  -47.2382 C   0  0  0  0  0  0  0  0  0  0  0  0
   68.5527  150.7298  -48.7095 C   0  0  0  0  0  0  0  0  0  0  0  0
   68.4014  151.7713  -49.7813 C   0  0  0  0  0  0  0  0  0  0  0  0
   67.4017  152.7806  -49.6332 C   0  0  0  0  0  0  0  0  0  0  0  0
   66.9105  153.5934  -50.6555 C   0  0  0  0  0  0  0  0  0  0  0  0
   65.4994  154.1964  -49.0705 C   0  0  0  0  0  0  0  0  0  0  0  0
   63.7636  154.5779  -47.3396 C   0  0  0  0  0  0  0  0  0  0  0  0
   63.7954  153.3359  -46.7005 C   0  0  0  0  0  0  0  0  0  0  0  0
   63.0125  153.1131  -45.5859 C   0  0  0  0  0  0  0  0  0  0  0  0
   62.2015  154.1305  -45.1041 C   0  0  0  0  0  0  0  0  0  0  0  0
   62.1439  155.3629  -45.7346 C   0  0  0  0  0  0  0  0  0  0  0  0
   62.9287  155.5829  -46.8461 C   0  0  0  0  0  0  0  0  0  0  0  0
   59.9583  153.0492  -44.5346 O   0  0  0  0  0  0  0  0  0  0  0  0
   60.6152  154.9884  -43.1848 O   0  0  0  0  0  0  0  0  0  0  0  0
   69.1173  151.7290  -50.7853 O   0  0  0  0  0  0  0  0  0  0  0  0
   66.4620  153.0505  -48.1978 S   0  0  0  0  0  0  0  0  0  0  0  0
   61.0213  153.7688  -43.8628 S   0  0  0  0  0  0  0  0  0  0  0  0
   68.9806  148.0030  -46.0107 H   0  0  0  0  0  0  0  0  0  0  0  0
   70.9588  149.1964  -46.9011 H   0  0  0  0  0  0  0  0  0  0  0  0
   67.0315  154.1909  -52.6192 H   0  0  0  0  0  0  0  0  0  0  0  0
   68.1857  152.9812  -52.0418 H   0  0  0  0  0  0  0  0  0  0  0  0
   70.6814  150.9124  -48.6596 H   0  0  0  0  0  0  0  0  0  0  0  0
   63.9893  155.5169  -49.1257 H   0  0  0  0  0  0  0  0  0  0  0  0
   66.4579  150.2658  -48.5842 H   0  0  0  0  0  0  0  0  0  0  0  0
   61.9038  151.8384  -43.0997 H   0  0  0  0  0  0  0  0  0  0  0  0
   61.4993  153.0100  -41.8545 H   0  0  0  0  0  0  0  0  0  0  0  0
   66.7355  148.5454  -46.8588 H   0  0  0  0  0  0  0  0  0  0  0  0
   64.3705  152.5157  -47.0900 H   0  0  0  0  0  0  0  0  0  0  0  0
   63.0193  152.1413  -45.1067 H   0  0  0  0  0  0  0  0  0  0  0  0
   61.4780  156.1315  -45.3717 H   0  0  0  0  0  0  0  0  0  0  0  0
   62.8545  156.5164  -47.3774 H   0  0  0  0  0  0  0  0  0  0  0  0
  1 13  1  0
  1 14  2  0
  2 13  1  0
  2 28  1  0
  2 29  1  0
  3 14  1  0
  3 15  1  0
  3 31  1  0
  4 25  1  0
  4 33  1  0
  4 34  1  0
  5  6  2  0
  5  9  1  0
  5 26  1  0
  6  7  1  0
  6 27  1  0
  7 10  2  0
  7 30  1  0
  8  9  2  0
  8 10  1  0
  8 32  1  0
  9 35  1  0
 11 10  1  0
 11 12  1  0
 11 23  2  0
 12 13  2  0
 12 24  1  0
 14 24  1  0
 15 16  2  0
 15 20  1  0
 16 17  1  0
 16 36  1  0
 17 18  2  0
 17 37  1  0
 18 19  1  0
 18 25  1  0
 19 20  2  0
 19 38  1  0
 20 39  1  0
 21 25  2  0
 22 25  2  0
M  END
>  <lm5_entropy_jk>  (1) 
22.952794734129974

>  <number_of_rotatable_bonds>  (1) 
5

>  <IC50_NM>  (1) 
130

>  <charge>  (1) 
0

$$$$
