3S1H
     RDKit          3D

 43 45  0  0  1  0  0  0  0  0999 V2000
   65.6052  154.1065  -50.6990 N   0  0  0  0  0  0  0  0  0  0  0  0
   67.3096  153.3036  -52.0754 N   0  0  0  0  0  0  0  0  0  0  0  0
   64.0625  154.6716  -49.0597 N   0  0  0  0  0  0  0  0  0  0  0  0
   61.2723  153.1028  -43.1990 N   0  0  0  0  0  0  0  0  0  0  0  0
   69.4689  149.1268  -46.6119 C   0  0  0  0  0  0  0  0  0  0  0  0
   70.4036  149.6960  -47.4728 C   0  0  0  0  0  0  0  0  0  0  0  0
   69.9925  150.5326  -48.4824 C   0  0  0  0  0  0  0  0  0  0  0  0
   67.7139  150.2440  -47.7998 C   0  0  0  0  0  0  0  0  0  0  0  0
   68.1139  149.3876  -46.7816 C   0  0  0  0  0  0  0  0  0  0  0  0
   69.0863  147.8439  -44.6533 C   0  0  0  0  0  0  0  0  0  0  0  0
   68.6414  150.8396  -48.6460 C   0  0  0  0  0  0  0  0  0  0  0  0
   68.2732  151.7101  -49.8021 C   0  0  0  0  0  0  0  0  0  0  0  0
   67.1579  152.6060  -49.7707 C   0  0  0  0  0  0  0  0  0  0  0  0
   66.7220  153.3279  -50.8858 C   0  0  0  0  0  0  0  0  0  0  0  0
   65.1486  153.9810  -49.4761 C   0  0  0  0  0  0  0  0  0  0  0  0
   63.2937  154.4571  -47.9100 C   0  0  0  0  0  0  0  0  0  0  0  0
   63.2143  153.2147  -47.2741 C   0  0  0  0  0  0  0  0  0  0  0  0
   62.4021  153.0611  -46.1683 C   0  0  0  0  0  0  0  0  0  0  0  0
   61.6594  154.1383  -45.7009 C   0  0  0  0  0  0  0  0  0  0  0  0
   61.7095  155.3667  -46.3365 C   0  0  0  0  0  0  0  0  0  0  0  0
   62.5294  155.5233  -47.4369 C   0  0  0  0  0  0  0  0  0  0  0  0
   59.5381  152.9169  -44.8782 O   0  0  0  0  0  0  0  0  0  0  0  0
   60.0195  155.1405  -43.9470 O   0  0  0  0  0  0  0  0  0  0  0  0
   68.9776  151.6395  -50.8202 O   0  0  0  0  0  0  0  0  0  0  0  0
   69.9805  148.3156  -45.6524 O   0  0  0  0  0  0  0  0  0  0  0  0
   66.0754  152.9342  -48.4397 S   0  0  0  0  0  0  0  0  0  0  0  0
   60.5142  153.8671  -44.3952 S   0  0  0  0  0  0  0  0  0  0  0  0
   71.4406  149.4251  -47.3572 H   0  0  0  0  0  0  0  0  0  0  0  0
   66.9706  153.8679  -52.8408 H   0  0  0  0  0  0  0  0  0  0  0  0
   68.1249  152.7138  -52.1395 H   0  0  0  0  0  0  0  0  0  0  0  0
   70.7114  150.9547  -49.1688 H   0  0  0  0  0  0  0  0  0  0  0  0
   63.7043  155.3904  -49.6891 H   0  0  0  0  0  0  0  0  0  0  0  0
   66.6567  150.3949  -47.9548 H   0  0  0  0  0  0  0  0  0  0  0  0
   61.4341  152.1049  -43.3999 H   0  0  0  0  0  0  0  0  0  0  0  0
   62.0566  153.5901  -42.7943 H   0  0  0  0  0  0  0  0  0  0  0  0
   67.3636  148.9029  -46.1793 H   0  0  0  0  0  0  0  0  0  0  0  0
   69.6946  147.2497  -43.9779 H   0  0  0  0  0  0  0  0  0  0  0  0
   68.3073  147.2234  -45.0930 H   0  0  0  0  0  0  0  0  0  0  0  0
   68.6509  148.6756  -44.0979 H   0  0  0  0  0  0  0  0  0  0  0  0
   63.7342  152.3589  -47.6675 H   0  0  0  0  0  0  0  0  0  0  0  0
   62.3232  152.0996  -45.6801 H   0  0  0  0  0  0  0  0  0  0  0  0
   61.0849  156.1767  -45.9948 H   0  0  0  0  0  0  0  0  0  0  0  0
   62.5352  156.4518  -47.9810 H   0  0  0  0  0  0  0  0  0  0  0  0
  1 14  1  0
  1 15  2  0
  2 14  1  0
  2 29  1  0
  2 30  1  0
  3 15  1  0
  3 16  1  0
  3 32  1  0
  4 27  1  0
  4 34  1  0
  4 35  1  0
  5  6  2  0
  5  9  1  0
  5 25  1  0
  6  7  1  0
  6 28  1  0
  7 11  2  0
  7 31  1  0
  8  9  2  0
  8 11  1  0
  8 33  1  0
  9 36  1  0
 10 25  1  0
 10 37  1  0
 10 38  1  0
 10 39  1  0
 12 11  1  0
 12 13  1  0
 12 24  2  0
 13 14  2  0
 13 26  1  0
 15 26  1  0
 16 17  2  0
 16 21  1  0
 17 18  1  0
 17 40  1  0
 18 19  2  0
 18 41  1  0
 19 20  1  0
 19 27  1  0
 20 21  2  0
 20 42  1  0
 21 43  1  0
 22 27  2  0
 23 27  2  0
M  END
>  <lm5_entropy_jk>  (1) 
33.50945403317048

>  <number_of_rotatable_bonds>  (1) 
6

>  <IC50_NM>  (1) 
17000

>  <charge>  (1) 
0

$$$$
