3QQK
     RDKit          3D

 31 32  0  0  0  0  0  0  0  0999 V2000
   62.7803  153.2036  -46.5026 C   0  0  0  0  0  0  0  0  0  0  0  0
   62.6876  154.0126  -47.5438 C   0  0  0  0  0  0  0  0  0  0  0  0
   63.6359  155.1507  -47.7985 C   0  0  0  0  0  0  0  0  0  0  0  0
   64.1340  155.1819  -49.1577 N   0  0  0  0  0  0  0  0  0  0  0  0
   65.1491  154.4377  -49.5828 C   0  0  0  0  0  0  0  0  0  0  0  0
   65.5867  154.4553  -50.8249 N   0  0  0  0  0  0  0  0  0  0  0  0
   66.6605  153.6208  -50.9726 C   0  0  0  0  0  0  0  0  0  0  0  0
   67.0710  152.9343  -49.8231 C   0  0  0  0  0  0  0  0  0  0  0  0
   66.0034  153.3665  -48.5009 S   0  0  0  0  0  0  0  0  0  0  0  0
   67.2336  153.5103  -52.1666 N   0  0  0  0  0  0  0  0  0  0  0  0
   68.1828  152.0430  -49.8192 C   0  0  0  0  0  0  0  0  0  0  0  0
   68.4737  151.1270  -48.6701 C   0  0  0  0  0  0  0  0  0  0  0  0
   67.4646  150.4812  -47.9608 C   0  0  0  0  0  0  0  0  0  0  0  0
   67.7830  149.5321  -46.9995 C   0  0  0  0  0  0  0  0  0  0  0  0
   69.1131  149.2407  -46.7382 C   0  0  0  0  0  0  0  0  0  0  0  0
   70.1205  149.8885  -47.4372 C   0  0  0  0  0  0  0  0  0  0  0  0
   69.8045  150.8202  -48.4091 C   0  0  0  0  0  0  0  0  0  0  0  0
   68.9385  151.9862  -50.7997 O   0  0  0  0  0  0  0  0  0  0  0  0
   62.0617  152.4179  -46.3232 H   0  0  0  0  0  0  0  0  0  0  0  0
   63.5837  153.3054  -45.7828 H   0  0  0  0  0  0  0  0  0  0  0  0
   61.8965  153.9055  -48.2772 H   0  0  0  0  0  0  0  0  0  0  0  0
   63.1177  156.0952  -47.6449 H   0  0  0  0  0  0  0  0  0  0  0  0
   64.4694  155.1123  -47.0981 H   0  0  0  0  0  0  0  0  0  0  0  0
   63.6119  155.7314  -49.8409 H   0  0  0  0  0  0  0  0  0  0  0  0
   66.9205  154.0739  -52.9442 H   0  0  0  0  0  0  0  0  0  0  0  0
   68.0653  152.9401  -52.1969 H   0  0  0  0  0  0  0  0  0  0  0  0
   66.4299  150.6814  -48.1889 H   0  0  0  0  0  0  0  0  0  0  0  0
   66.9957  149.0006  -46.4873 H   0  0  0  0  0  0  0  0  0  0  0  0
   69.3606  148.4796  -46.0138 H   0  0  0  0  0  0  0  0  0  0  0  0
   71.1553  149.6277  -47.2683 H   0  0  0  0  0  0  0  0  0  0  0  0
   70.5779  151.2974  -48.9935 H   0  0  0  0  0  0  0  0  0  0  0  0
  1  2  2  0
  1 19  1  0
  1 20  1  0
  2 21  1  0
  3  2  1  0
  3 22  1  0
  3 23  1  0
  4  3  1  0
  4 24  1  0
  5  4  1  0
  5  9  1  0
  6  5  2  0
  7  6  1  0
  7  8  2  0
  8  9  1  0
 10  7  1  0
 10 25  1  0
 10 26  1  0
 11  8  1  0
 11 12  1  0
 12 17  1  0
 12 13  2  0
 13 14  1  0
 13 27  1  0
 14 15  2  0
 14 28  1  0
 15 29  1  0
 16 15  1  0
 16 30  1  0
 17 16  2  0
 17 31  1  0
 18 11  2  0
M  END
>  <lm5_entropy_jk>  (1) 
22.397995528352578

>  <number_of_rotatable_bonds>  (1) 
5

>  <IC50_NM>  (1) 
15000

>  <charge>  (1) 
0

$$$$
