3R9D
     RDKit          3D

 41 43  0  0  0  0  0  0  0  0999 V2000
   65.4912  154.6231  -50.6279 N   0  0  0  0  0  0  0  0  0  0  0  0
   63.8847  154.8335  -48.9820 N   0  0  0  0  0  0  0  0  0  0  0  0
   68.7802  151.8262  -48.7510 N   0  0  0  0  0  0  0  0  0  0  0  0
   67.2851  154.1567  -52.0464 N   0  0  0  0  0  0  0  0  0  0  0  0
   61.2818  153.2746  -43.0615 N   0  0  0  0  0  0  0  0  0  0  0  0
   67.2675  153.3668  -49.7731 C   0  0  0  0  0  0  0  0  0  0  0  0
   66.7129  154.0413  -50.8516 C   0  0  0  0  0  0  0  0  0  0  0  0
   65.0602  154.3498  -49.4170 C   0  0  0  0  0  0  0  0  0  0  0  0
   63.1915  154.6098  -47.7866 C   0  0  0  0  0  0  0  0  0  0  0  0
   68.5113  152.6502  -49.8271 C   0  0  0  0  0  0  0  0  0  0  0  0
   62.2518  155.5773  -47.4315 C   0  0  0  0  0  0  0  0  0  0  0  0
   61.4674  155.4160  -46.3100 C   0  0  0  0  0  0  0  0  0  0  0  0
   61.6321  154.2828  -45.5255 C   0  0  0  0  0  0  0  0  0  0  0  0
   62.5589  153.3094  -45.8653 C   0  0  0  0  0  0  0  0  0  0  0  0
   63.3428  153.4719  -46.9934 C   0  0  0  0  0  0  0  0  0  0  0  0
   69.8027  150.8665  -48.6792 C   0  0  0  0  0  0  0  0  0  0  0  0
   69.5875  149.7719  -47.8410 C   0  0  0  0  0  0  0  0  0  0  0  0
   70.5506  148.7911  -47.7225 C   0  0  0  0  0  0  0  0  0  0  0  0
   71.7407  148.8784  -48.4343 C   0  0  0  0  0  0  0  0  0  0  0  0
   71.9164  149.9727  -49.2542 C   0  0  0  0  0  0  0  0  0  0  0  0
   70.9914  150.9833  -49.3961 C   0  0  0  0  0  0  0  0  0  0  0  0
   69.2954  152.7693  -50.7674 O   0  0  0  0  0  0  0  0  0  0  0  0
   59.5009  153.0491  -44.8272 O   0  0  0  0  0  0  0  0  0  0  0  0
   59.9523  155.2339  -43.7601 O   0  0  0  0  0  0  0  0  0  0  0  0
   66.1471  153.3999  -48.4439 S   0  0  0  0  0  0  0  0  0  0  0  0
   60.4553  153.9750  -44.2623 S   0  0  0  0  0  0  0  0  0  0  0  0
   73.0720  150.0526  -49.9590 F   0  0  0  0  0  0  0  0  0  0  0  0
   63.4055  155.4351  -49.6561 H   0  0  0  0  0  0  0  0  0  0  0  0
   68.0012  151.6364  -48.1437 H   0  0  0  0  0  0  0  0  0  0  0  0
   66.7947  154.5455  -52.8381 H   0  0  0  0  0  0  0  0  0  0  0  0
   68.1356  153.6407  -52.1969 H   0  0  0  0  0  0  0  0  0  0  0  0
   61.2955  152.2542  -43.1623 H   0  0  0  0  0  0  0  0  0  0  0  0
   60.9651  153.6257  -42.1703 H   0  0  0  0  0  0  0  0  0  0  0  0
   62.1060  156.4297  -48.0750 H   0  0  0  0  0  0  0  0  0  0  0  0
   60.7082  156.1436  -46.0708 H   0  0  0  0  0  0  0  0  0  0  0  0
   62.6265  152.4025  -45.2829 H   0  0  0  0  0  0  0  0  0  0  0  0
   64.0165  152.6817  -47.2745 H   0  0  0  0  0  0  0  0  0  0  0  0
   68.6491  149.6662  -47.3115 H   0  0  0  0  0  0  0  0  0  0  0  0
   70.3500  147.9315  -47.1007 H   0  0  0  0  0  0  0  0  0  0  0  0
   72.4705  148.0757  -48.4091 H   0  0  0  0  0  0  0  0  0  0  0  0
   71.1686  151.8029  -50.0694 H   0  0  0  0  0  0  0  0  0  0  0  0
  1  8  2  0
  2  9  1  0
  2 28  1  0
  3 16  1  0
  3 29  1  0
  4  7  1  0
  4 30  1  0
  4 31  1  0
  5 32  1  0
  5 33  1  0
  6 25  1  0
  7  1  1  0
  7  6  2  0
  8  2  1  0
  8 25  1  0
  9 11  2  0
  9 15  1  0
 10  6  1  0
 10  3  1  0
 11 12  1  0
 11 34  1  0
 12 13  2  0
 12 35  1  0
 13 26  1  0
 14 13  1  0
 14 36  1  0
 15 14  2  0
 15 37  1  0
 16 17  2  0
 17 18  1  0
 17 38  1  0
 18 39  1  0
 19 18  2  0
 19 40  1  0
 20 19  1  0
 21 20  2  0
 21 16  1  0
 21 41  1  0
 22 10  2  0
 23 26  2  0
 26 24  2  0
 26  5  1  0
 27 20  1  0
M  END
>  <lm5_entropy_jk>  (1) 
21.052089499889224

>  <number_of_rotatable_bonds>  (1) 
6

>  <IC50_NM>  (1) 
71000

>  <charge>  (1) 
0

$$$$
