3R9D
     RDKit          3D

 41 43  0  0  0  0  0  0  0  0999 V2000
   65.5081  154.6187  -50.5991 N   0  0  0  0  0  0  0  0  0  0  0  0
   63.8972  154.8306  -48.9563 N   0  0  0  0  0  0  0  0  0  0  0  0
   68.7860  151.8035  -48.7221 N   0  0  0  0  0  0  0  0  0  0  0  0
   67.3028  154.1455  -52.0140 N   0  0  0  0  0  0  0  0  0  0  0  0
   61.2646  153.2777  -43.0490 N   0  0  0  0  0  0  0  0  0  0  0  0
   67.2783  153.3521  -49.7422 C   0  0  0  0  0  0  0  0  0  0  0  0
   66.7283  154.0318  -50.8205 C   0  0  0  0  0  0  0  0  0  0  0  0
   65.0716  154.3426  -49.3906 C   0  0  0  0  0  0  0  0  0  0  0  0
   63.1987  154.6100  -47.7633 C   0  0  0  0  0  0  0  0  0  0  0  0
   68.5221  152.6338  -49.7940 C   0  0  0  0  0  0  0  0  0  0  0  0
   62.2538  155.5763  -47.4183 C   0  0  0  0  0  0  0  0  0  0  0  0
   61.4632  155.4172  -46.3012 C   0  0  0  0  0  0  0  0  0  0  0  0
   61.6254  154.2863  -45.5125 C   0  0  0  0  0  0  0  0  0  0  0  0
   62.5562  153.3138  -45.8431 C   0  0  0  0  0  0  0  0  0  0  0  0
   63.3486  153.4758  -46.9649 C   0  0  0  0  0  0  0  0  0  0  0  0
   69.8102  150.8465  -48.6409 C   0  0  0  0  0  0  0  0  0  0  0  0
   69.6030  149.7651  -47.7832 C   0  0  0  0  0  0  0  0  0  0  0  0
   70.5666  148.7850  -47.6585 C   0  0  0  0  0  0  0  0  0  0  0  0
   71.7548  148.8644  -48.3742 C   0  0  0  0  0  0  0  0  0  0  0  0
   71.9241  149.9466  -49.2114 C   0  0  0  0  0  0  0  0  0  0  0  0
   70.9939  150.9505  -49.3683 C   0  0  0  0  0  0  0  0  0  0  0  0
   69.3101  152.7576  -50.7305 O   0  0  0  0  0  0  0  0  0  0  0  0
   59.4923  153.0482  -44.8214 O   0  0  0  0  0  0  0  0  0  0  0  0
   59.9354  155.2353  -43.7540 O   0  0  0  0  0  0  0  0  0  0  0  0
   66.1520  153.3826  -48.4185 S   0  0  0  0  0  0  0  0  0  0  0  0
   60.4428  153.9774  -44.2548 S   0  0  0  0  0  0  0  0  0  0  0  0
   73.0763  150.0193  -49.9237 F   0  0  0  0  0  0  0  0  0  0  0  0
   63.4211  155.4312  -49.6334 H   0  0  0  0  0  0  0  0  0  0  0  0
   68.0089  151.6218  -48.1107 H   0  0  0  0  0  0  0  0  0  0  0  0
   66.8211  154.5451  -52.8058 H   0  0  0  0  0  0  0  0  0  0  0  0
   68.1545  153.6303  -52.1599 H   0  0  0  0  0  0  0  0  0  0  0  0
   61.2742  152.2572  -43.1566 H   0  0  0  0  0  0  0  0  0  0  0  0
   60.9254  153.6172  -42.1611 H   0  0  0  0  0  0  0  0  0  0  0  0
   62.1091  156.4247  -48.0672 H   0  0  0  0  0  0  0  0  0  0  0  0
   60.7005  156.1434  -46.0700 H   0  0  0  0  0  0  0  0  0  0  0  0
   62.6203  152.4076  -45.2593 H   0  0  0  0  0  0  0  0  0  0  0  0
   64.0273  152.6871  -47.2375 H   0  0  0  0  0  0  0  0  0  0  0  0
   68.6686  149.6668  -47.2456 H   0  0  0  0  0  0  0  0  0  0  0  0
   70.3681  147.9294  -47.0297 H   0  0  0  0  0  0  0  0  0  0  0  0
   72.4839  148.0601  -48.3488 H   0  0  0  0  0  0  0  0  0  0  0  0
   71.1644  151.7546  -50.0613 H   0  0  0  0  0  0  0  0  0  0  0  0
  1  8  2  0
  2  9  1  0
  2 28  1  0
  3 16  1  0
  3 29  1  0
  4  7  1  0
  4 30  1  0
  4 31  1  0
  5 32  1  0
  5 33  1  0
  6 25  1  0
  7  1  1  0
  7  6  2  0
  8  2  1  0
  8 25  1  0
  9 11  2  0
  9 15  1  0
 10  6  1  0
 10  3  1  0
 11 12  1  0
 11 34  1  0
 12 13  2  0
 12 35  1  0
 13 26  1  0
 14 13  1  0
 14 36  1  0
 15 14  2  0
 15 37  1  0
 16 17  2  0
 17 18  1  0
 17 38  1  0
 18 39  1  0
 19 18  2  0
 19 40  1  0
 20 19  1  0
 21 20  2  0
 21 16  1  0
 21 41  1  0
 22 10  2  0
 23 26  2  0
 26 24  2  0
 26  5  1  0
 27 20  1  0
M  END
>  <lm5_entropy_jk>  (1) 
21.052089499889224

>  <number_of_rotatable_bonds>  (1) 
6

>  <IC50_NM>  (1) 
71000

>  <charge>  (1) 
0

$$$$
