3RJC
     RDKit          3D

 34 36  0  0  0  0  0  0  0  0999 V2000
   65.5447  154.3156  -50.3983 N   0  0  0  0  0  0  0  0  0  0  0  0
   66.7175  153.6440  -50.6239 C   0  0  0  0  0  0  0  0  0  0  0  0
   67.2934  153.6960  -51.8206 N   0  0  0  0  0  0  0  0  0  0  0  0
   67.2143  152.9022  -49.5483 C   0  0  0  0  0  0  0  0  0  0  0  0
   68.4080  152.1184  -49.6226 C   0  0  0  0  0  0  0  0  0  0  0  0
   68.6886  151.0033  -48.6594 C   0  0  0  0  0  0  0  0  0  0  0  0
   67.6820  150.2184  -48.1018 C   0  0  0  0  0  0  0  0  0  0  0  0
   68.0004  149.1341  -47.2974 C   0  0  0  0  0  0  0  0  0  0  0  0
   69.3298  148.8282  -47.0502 C   0  0  0  0  0  0  0  0  0  0  0  0
   70.3354  149.6043  -47.6080 C   0  0  0  0  0  0  0  0  0  0  0  0
   70.0193  150.6790  -48.4204 C   0  0  0  0  0  0  0  0  0  0  0  0
   69.2362  152.3319  -50.5164 O   0  0  0  0  0  0  0  0  0  0  0  0
   66.1043  153.0439  -48.2103 S   0  0  0  0  0  0  0  0  0  0  0  0
   65.0906  154.0661  -49.1882 C   0  0  0  0  0  0  0  0  0  0  0  0
   63.9409  154.6137  -48.7541 N   0  0  0  0  0  0  0  0  0  0  0  0
   63.2433  154.3625  -47.5612 C   0  0  0  0  0  0  0  0  0  0  0  0
   62.4711  155.4067  -47.0559 C   0  0  0  0  0  0  0  0  0  0  0  0
   61.7618  155.2016  -45.8922 C   0  0  0  0  0  0  0  0  0  0  0  0
   61.7645  153.9996  -45.2135 C   0  0  0  0  0  0  0  0  0  0  0  0
   62.5230  152.9685  -45.7409 C   0  0  0  0  0  0  0  0  0  0  0  0
   63.2573  153.1317  -46.9058 C   0  0  0  0  0  0  0  0  0  0  0  0
   61.0421  156.2230  -45.3963 F   0  0  0  0  0  0  0  0  0  0  0  0
   66.8887  154.1903  -52.6042 H   0  0  0  0  0  0  0  0  0  0  0  0
   68.1677  153.2053  -51.9120 H   0  0  0  0  0  0  0  0  0  0  0  0
   66.6452  150.4155  -48.3214 H   0  0  0  0  0  0  0  0  0  0  0  0
   67.2134  148.5214  -46.8866 H   0  0  0  0  0  0  0  0  0  0  0  0
   69.5661  147.9586  -46.4557 H   0  0  0  0  0  0  0  0  0  0  0  0
   71.3706  149.3379  -47.4617 H   0  0  0  0  0  0  0  0  0  0  0  0
   70.7913  151.2575  -48.9052 H   0  0  0  0  0  0  0  0  0  0  0  0
   63.4894  155.2718  -49.3949 H   0  0  0  0  0  0  0  0  0  0  0  0
   62.3959  156.3409  -47.5862 H   0  0  0  0  0  0  0  0  0  0  0  0
   61.1762  153.8697  -44.3191 H   0  0  0  0  0  0  0  0  0  0  0  0
   62.5105  152.0125  -45.2433 H   0  0  0  0  0  0  0  0  0  0  0  0
   63.7915  152.2964  -47.3230 H   0  0  0  0  0  0  0  0  0  0  0  0
  1 14  2  0
  2  1  1  0
  2  4  2  0
  3  2  1  0
  3 23  1  0
  3 24  1  0
  4 13  1  0
  5  4  1  0
  5  6  1  0
  6 11  1  0
  6  7  2  0
  7  8  1  0
  7 25  1  0
  8  9  2  0
  8 26  1  0
  9 27  1  0
 10  9  1  0
 10 28  1  0
 11 10  2  0
 11 29  1  0
 12  5  2  0
 14 15  1  0
 14 13  1  0
 15 16  1  0
 15 30  1  0
 16 17  2  0
 16 21  1  0
 17 18  1  0
 17 31  1  0
 18 22  1  0
 18 19  2  0
 19 32  1  0
 20 19  1  0
 20 33  1  0
 21 20  2  0
 21 34  1  0
M  END
>  <lm5_entropy_jk>  (1) 
20.581653483104166

>  <number_of_rotatable_bonds>  (1) 
4

>  <IC50_NM>  (1) 
5700

>  <charge>  (1) 
0

$$$$
