3QTR
     RDKit          3D

 34 36  0  0  1  0  0  0  0  0999 V2000
   65.5793  154.3253  -50.4264 N   0  0  0  0  0  0  0  0  0  0  0  0
   67.3301  153.7162  -51.8526 N   0  0  0  0  0  0  0  0  0  0  0  0
   63.9745  154.6072  -48.7798 N   0  0  0  0  0  0  0  0  0  0  0  0
   66.7525  153.6571  -50.6563 C   0  0  0  0  0  0  0  0  0  0  0  0
   67.2527  152.9115  -49.5848 C   0  0  0  0  0  0  0  0  0  0  0  0
   68.4418  152.1216  -49.6635 C   0  0  0  0  0  0  0  0  0  0  0  0
   68.7174  150.9984  -48.7069 C   0  0  0  0  0  0  0  0  0  0  0  0
   67.7098  150.2264  -48.1333 C   0  0  0  0  0  0  0  0  0  0  0  0
   68.0262  149.1426  -47.3270 C   0  0  0  0  0  0  0  0  0  0  0  0
   69.3552  148.8242  -47.0928 C   0  0  0  0  0  0  0  0  0  0  0  0
   70.3613  149.5846  -47.6709 C   0  0  0  0  0  0  0  0  0  0  0  0
   70.0469  150.6579  -48.4860 C   0  0  0  0  0  0  0  0  0  0  0  0
   65.1269  154.0709  -49.2150 C   0  0  0  0  0  0  0  0  0  0  0  0
   63.2571  154.3469  -47.5974 C   0  0  0  0  0  0  0  0  0  0  0  0
   62.3716  155.3370  -47.1739 C   0  0  0  0  0  0  0  0  0  0  0  0
   61.5994  155.1457  -46.0430 C   0  0  0  0  0  0  0  0  0  0  0  0
   61.7017  153.9725  -45.3097 C   0  0  0  0  0  0  0  0  0  0  0  0
   62.5734  152.9858  -45.7369 C   0  0  0  0  0  0  0  0  0  0  0  0
   63.3402  153.1547  -46.8806 C   0  0  0  0  0  0  0  0  0  0  0  0
   69.2707  152.3360  -50.5561 O   0  0  0  0  0  0  0  0  0  0  0  0
   66.1476  153.0496  -48.2436 S   0  0  0  0  0  0  0  0  0  0  0  0
   66.9107  154.1931  -52.6395 H   0  0  0  0  0  0  0  0  0  0  0  0
   68.1955  153.2110  -51.9507 H   0  0  0  0  0  0  0  0  0  0  0  0
   66.6723  150.4320  -48.3423 H   0  0  0  0  0  0  0  0  0  0  0  0
   67.2371  148.5416  -46.9027 H   0  0  0  0  0  0  0  0  0  0  0  0
   69.5894  147.9576  -46.4938 H   0  0  0  0  0  0  0  0  0  0  0  0
   71.3958  149.3102  -47.5327 H   0  0  0  0  0  0  0  0  0  0  0  0
   70.8158  151.2232  -48.9902 H   0  0  0  0  0  0  0  0  0  0  0  0
   63.5113  155.2489  -49.4285 H   0  0  0  0  0  0  0  0  0  0  0  0
   62.2614  156.2291  -47.7692 H   0  0  0  0  0  0  0  0  0  0  0  0
   60.8915  155.9103  -45.7607 H   0  0  0  0  0  0  0  0  0  0  0  0
   61.0882  153.8079  -44.4366 H   0  0  0  0  0  0  0  0  0  0  0  0
   62.6304  152.0570  -45.1920 H   0  0  0  0  0  0  0  0  0  0  0  0
   63.9552  152.3433  -47.2289 H   0  0  0  0  0  0  0  0  0  0  0  0
  1  4  1  0
  1 13  2  0
  2  4  1  0
  2 22  1  0
  2 23  1  0
  3 13  1  0
  3 14  1  0
  3 29  1  0
  4  5  2  0
  5 21  1  0
  6  5  1  0
  6  7  1  0
  6 20  2  0
  7  8  2  0
  7 12  1  0
  8  9  1  0
  8 24  1  0
  9 10  2  0
  9 25  1  0
 10 11  1  0
 10 26  1  0
 11 12  2  0
 11 27  1  0
 12 28  1  0
 13 21  1  0
 14 15  2  0
 14 19  1  0
 15 16  1  0
 15 30  1  0
 16 17  2  0
 16 31  1  0
 17 18  1  0
 17 32  1  0
 18 19  2  0
 18 33  1  0
 19 34  1  0
M  END
>  <lm5_entropy_jk>  (1) 
21.136452688881562

>  <number_of_rotatable_bonds>  (1) 
4

>  <IC50_NM>  (1) 
930

>  <charge>  (1) 
0

$$$$
