3S00
     RDKit          3D

 28 29  0  0  1  0  0  0  0  0999 V2000
   65.9055  154.3248  -50.2388 N   0  0  0  0  0  0  0  0  0  0  0  0
   67.5035  153.4363  -51.7102 N   0  0  0  0  0  0  0  0  0  0  0  0
   64.4483  154.8513  -48.4374 N   0  0  0  0  0  0  0  0  0  0  0  0
   66.9549  153.4654  -50.4841 C   0  0  0  0  0  0  0  0  0  0  0  0
   67.3795  152.6696  -49.4114 C   0  0  0  0  0  0  0  0  0  0  0  0
   68.4371  151.6939  -49.4285 C   0  0  0  0  0  0  0  0  0  0  0  0
   68.6862  150.8265  -48.2329 C   0  0  0  0  0  0  0  0  0  0  0  0
   65.4436  154.1267  -49.0274 C   0  0  0  0  0  0  0  0  0  0  0  0
   63.7071  154.3921  -47.2506 C   0  0  0  0  0  0  0  0  0  0  0  0
   62.9983  155.5485  -46.6057 C   0  0  0  0  0  0  0  0  0  0  0  0
   63.0128  155.8386  -45.3122 C   0  0  0  0  0  0  0  0  0  0  0  0
   69.8058  149.4017  -46.5714 C   0  0  0  0  0  0  0  0  0  0  0  0
   68.4888  149.5683  -46.2789 C   0  0  0  0  0  0  0  0  0  0  0  0
   67.8519  150.3813  -47.2445 C   0  0  0  0  0  0  0  0  0  0  0  0
   69.2083  151.5805  -50.3838 O   0  0  0  0  0  0  0  0  0  0  0  0
   70.9280  148.5018  -45.6429 Cl  0  0  0  0  0  0  0  0  0  0  0  0
   66.2935  152.9637  -48.0742 S   0  0  0  0  0  0  0  0  0  0  0  0
   70.2839  150.2040  -48.0091 S   0  0  0  0  0  0  0  0  0  0  0  0
   67.1738  154.0262  -52.4704 H   0  0  0  0  0  0  0  0  0  0  0  0
   68.2732  152.8179  -51.8913 H   0  0  0  0  0  0  0  0  0  0  0  0
   63.8139  155.2927  -49.0977 H   0  0  0  0  0  0  0  0  0  0  0  0
   64.3930  153.9416  -46.5437 H   0  0  0  0  0  0  0  0  0  0  0  0
   62.9728  153.6215  -47.5099 H   0  0  0  0  0  0  0  0  0  0  0  0
   67.9860  149.1136  -45.4373 H   0  0  0  0  0  0  0  0  0  0  0  0
   66.7920  150.5640  -47.2006 H   0  0  0  0  0  0  0  0  0  0  0  0
   62.4551  156.6746  -44.9137 H   0  0  0  0  0  0  0  0  0  0  0  0
   63.5635  155.2366  -44.6018 H   0  0  0  0  0  0  0  0  0  0  0  0
   62.4008  156.1520  -47.2788 H   0  0  0  0  0  0  0  0  0  0  0  0
  1  4  1  0
  1  8  2  0
  2  4  1  0
  2 19  1  0
  2 20  1  0
  3  8  1  0
  3  9  1  0
  3 21  1  0
  4  5  2  0
  5  6  1  0
  5 17  1  0
  6  7  1  0
  6 15  2  0
  7 14  2  0
  7 18  1  0
  8 17  1  0
  9 10  1  0
  9 22  1  0
  9 23  1  0
 10 11  2  0
 10 28  1  0
 11 26  1  0
 11 27  1  0
 12 13  2  0
 12 16  1  0
 12 18  1  0
 13 14  1  0
 13 24  1  0
 14 25  1  0
M  END
>  <lm5_entropy_jk>  (1) 
31.418959509749985

>  <number_of_rotatable_bonds>  (1) 
5

>  <IC50_NM>  (1) 
12000

>  <charge>  (1) 
0

$$$$
