3SQQ
     RDKit          3D

 42 44  0  0  0  0  0  0  0  0999 V2000
   65.4405  154.2523  -50.7353 N   0  0  0  0  0  0  0  0  0  0  0  0
   63.9322  154.7876  -49.0627 N   0  0  0  0  0  0  0  0  0  0  0  0
   67.1001  153.4642  -52.1722 N   0  0  0  0  0  0  0  0  0  0  0  0
   61.1700  153.1975  -43.2041 N   0  0  0  0  0  0  0  0  0  0  0  0
   67.0063  152.7298  -49.8752 C   0  0  0  0  0  0  0  0  0  0  0  0
   66.5426  153.4690  -50.9667 C   0  0  0  0  0  0  0  0  0  0  0  0
   65.0168  154.1126  -49.5008 C   0  0  0  0  0  0  0  0  0  0  0  0
   63.1694  154.5619  -47.9132 C   0  0  0  0  0  0  0  0  0  0  0  0
   68.0418  151.7517  -49.9750 C   0  0  0  0  0  0  0  0  0  0  0  0
   68.4479  150.9159  -48.7980 C   0  0  0  0  0  0  0  0  0  0  0  0
   69.8001  150.6744  -48.5357 C   0  0  0  0  0  0  0  0  0  0  0  0
   70.1164  149.8114  -47.4917 C   0  0  0  0  0  0  0  0  0  0  0  0
   69.1394  149.1736  -46.7491 C   0  0  0  0  0  0  0  0  0  0  0  0
   67.8010  149.3975  -47.0271 C   0  0  0  0  0  0  0  0  0  0  0  0
   67.4650  150.2737  -48.0445 C   0  0  0  0  0  0  0  0  0  0  0  0
   63.1172  153.3250  -47.2636 C   0  0  0  0  0  0  0  0  0  0  0  0
   62.3032  153.1657  -46.1601 C   0  0  0  0  0  0  0  0  0  0  0  0
   61.5346  154.2312  -45.7071 C   0  0  0  0  0  0  0  0  0  0  0  0
   61.5611  155.4548  -46.3539 C   0  0  0  0  0  0  0  0  0  0  0  0
   62.3798  155.6161  -47.4543 C   0  0  0  0  0  0  0  0  0  0  0  0
   70.9176  151.2947  -49.3303 C   0  0  0  0  0  0  0  0  0  0  0  0
   68.6057  151.5583  -51.0612 O   0  0  0  0  0  0  0  0  0  0  0  0
   59.8734  155.2069  -43.9588 O   0  0  0  0  0  0  0  0  0  0  0  0
   59.4401  152.9692  -44.8849 O   0  0  0  0  0  0  0  0  0  0  0  0
   65.9822  153.0707  -48.4987 S   0  0  0  0  0  0  0  0  0  0  0  0
   60.3931  153.9431  -44.4036 S   0  0  0  0  0  0  0  0  0  0  0  0
   63.5439  155.4825  -49.7027 H   0  0  0  0  0  0  0  0  0  0  0  0
   66.7205  154.0001  -52.9397 H   0  0  0  0  0  0  0  0  0  0  0  0
   67.8443  152.7969  -52.2952 H   0  0  0  0  0  0  0  0  0  0  0  0
   61.3250  152.1982  -43.3959 H   0  0  0  0  0  0  0  0  0  0  0  0
   61.9672  153.6861  -42.8264 H   0  0  0  0  0  0  0  0  0  0  0  0
   71.1596  149.5959  -47.3060 H   0  0  0  0  0  0  0  0  0  0  0  0
   69.4188  148.4672  -45.9816 H   0  0  0  0  0  0  0  0  0  0  0  0
   67.0264  148.8709  -46.4925 H   0  0  0  0  0  0  0  0  0  0  0  0
   66.4246  150.4191  -48.2880 H   0  0  0  0  0  0  0  0  0  0  0  0
   63.6636  152.4794  -47.6435 H   0  0  0  0  0  0  0  0  0  0  0  0
   62.2425  152.2081  -45.6613 H   0  0  0  0  0  0  0  0  0  0  0  0
   60.9226  156.2576  -46.0212 H   0  0  0  0  0  0  0  0  0  0  0  0
   62.3706  156.5392  -48.0087 H   0  0  0  0  0  0  0  0  0  0  0  0
   70.6442  151.4344  -50.3678 H   0  0  0  0  0  0  0  0  0  0  0  0
   71.7877  150.6479  -49.2843 H   0  0  0  0  0  0  0  0  0  0  0  0
   71.1982  152.2671  -48.9262 H   0  0  0  0  0  0  0  0  0  0  0  0
  1  7  2  0
  2  8  1  0
  2 27  1  0
  3  6  1  0
  3 28  1  0
  3 29  1  0
  4 30  1  0
  4 31  1  0
  5 25  1  0
  6  1  1  0
  6  5  2  0
  7  2  1  0
  7 25  1  0
  8 20  1  0
  8 16  2  0
  9  5  1  0
  9 10  1  0
 10 11  2  0
 10 15  1  0
 11 12  1  0
 12 13  2  0
 12 32  1  0
 13 33  1  0
 14 13  1  0
 14 34  1  0
 15 14  2  0
 15 35  1  0
 16 17  1  0
 16 36  1  0
 17 18  2  0
 17 37  1  0
 18 26  1  0
 19 18  1  0
 19 38  1  0
 20 19  2  0
 20 39  1  0
 21 11  1  0
 21 40  1  0
 21 41  1  0
 21 42  1  0
 22  9  2  0
 24 26  2  0
 26 23  2  0
 26  4  1  0
M  END
>  <lm5_entropy_jk>  (1) 
31.418959509749985

>  <number_of_rotatable_bonds>  (1) 
5

>  <IC50_NM>  (1) 
4800

>  <charge>  (1) 
0

$$$$
