3SQQ
     RDKit          3D

 42 44  0  0  0  0  0  0  0  0999 V2000
   65.4470  154.2419  -50.7381 N   0  0  0  0  0  0  0  0  0  0  0  0
   63.9381  154.7777  -49.0647 N   0  0  0  0  0  0  0  0  0  0  0  0
   67.1099  153.4565  -52.1732 N   0  0  0  0  0  0  0  0  0  0  0  0
   61.1869  153.1972  -43.1928 N   0  0  0  0  0  0  0  0  0  0  0  0
   67.0132  152.7212  -49.8767 C   0  0  0  0  0  0  0  0  0  0  0  0
   66.5503  153.4598  -50.9686 C   0  0  0  0  0  0  0  0  0  0  0  0
   65.0230  154.1033  -49.5034 C   0  0  0  0  0  0  0  0  0  0  0  0
   63.1804  154.5551  -47.9109 C   0  0  0  0  0  0  0  0  0  0  0  0
   68.0466  151.7415  -49.9747 C   0  0  0  0  0  0  0  0  0  0  0  0
   68.4510  150.9084  -48.7956 C   0  0  0  0  0  0  0  0  0  0  0  0
   69.8033  150.6681  -48.5333 C   0  0  0  0  0  0  0  0  0  0  0  0
   70.1216  149.8092  -47.4865 C   0  0  0  0  0  0  0  0  0  0  0  0
   69.1453  149.1756  -46.7395 C   0  0  0  0  0  0  0  0  0  0  0  0
   67.8065  149.3984  -47.0168 C   0  0  0  0  0  0  0  0  0  0  0  0
   67.4690  150.2689  -48.0386 C   0  0  0  0  0  0  0  0  0  0  0  0
   63.1284  153.3185  -47.2609 C   0  0  0  0  0  0  0  0  0  0  0  0
   62.3201  153.1607  -46.1531 C   0  0  0  0  0  0  0  0  0  0  0  0
   61.5562  154.2281  -45.6968 C   0  0  0  0  0  0  0  0  0  0  0  0
   61.5827  155.4517  -46.3434 C   0  0  0  0  0  0  0  0  0  0  0  0
   62.3959  155.6114  -47.4482 C   0  0  0  0  0  0  0  0  0  0  0  0
   70.9196  151.2847  -49.3327 C   0  0  0  0  0  0  0  0  0  0  0  0
   68.6112  151.5458  -51.0602 O   0  0  0  0  0  0  0  0  0  0  0  0
   59.8981  155.2107  -43.9492 O   0  0  0  0  0  0  0  0  0  0  0  0
   59.4557  152.9741  -44.8748 O   0  0  0  0  0  0  0  0  0  0  0  0
   65.9890  153.0628  -48.5010 S   0  0  0  0  0  0  0  0  0  0  0  0
   60.4123  153.9447  -44.3934 S   0  0  0  0  0  0  0  0  0  0  0  0
   63.5492  155.4735  -49.7035 H   0  0  0  0  0  0  0  0  0  0  0  0
   66.7337  153.9949  -52.9406 H   0  0  0  0  0  0  0  0  0  0  0  0
   67.8557  152.7910  -52.2956 H   0  0  0  0  0  0  0  0  0  0  0  0
   61.3374  152.1976  -43.3843 H   0  0  0  0  0  0  0  0  0  0  0  0
   61.9892  153.6825  -42.8212 H   0  0  0  0  0  0  0  0  0  0  0  0
   71.1655  149.5939  -47.3024 H   0  0  0  0  0  0  0  0  0  0  0  0
   69.4262  148.4733  -45.9688 H   0  0  0  0  0  0  0  0  0  0  0  0
   67.0330  148.8739  -46.4784 H   0  0  0  0  0  0  0  0  0  0  0  0
   66.4284  150.4106  -48.2822 H   0  0  0  0  0  0  0  0  0  0  0  0
   63.6689  152.4713  -47.6452 H   0  0  0  0  0  0  0  0  0  0  0  0
   62.2591  152.2023  -45.6558 H   0  0  0  0  0  0  0  0  0  0  0  0
   60.9471  156.2550  -46.0065 H   0  0  0  0  0  0  0  0  0  0  0  0
   62.3853  156.5341  -48.0031 H   0  0  0  0  0  0  0  0  0  0  0  0
   70.6456  151.4129  -50.3717 H   0  0  0  0  0  0  0  0  0  0  0  0
   71.7916  150.6409  -49.2801 H   0  0  0  0  0  0  0  0  0  0  0  0
   71.1967  152.2623  -48.9385 H   0  0  0  0  0  0  0  0  0  0  0  0
  1  7  2  0
  2  8  1  0
  2 27  1  0
  3  6  1  0
  3 28  1  0
  3 29  1  0
  4 30  1  0
  4 31  1  0
  5 25  1  0
  6  1  1  0
  6  5  2  0
  7  2  1  0
  7 25  1  0
  8 20  1  0
  8 16  2  0
  9  5  1  0
  9 10  1  0
 10 11  2  0
 10 15  1  0
 11 12  1  0
 12 13  2  0
 12 32  1  0
 13 33  1  0
 14 13  1  0
 14 34  1  0
 15 14  2  0
 15 35  1  0
 16 17  1  0
 16 36  1  0
 17 18  2  0
 17 37  1  0
 18 26  1  0
 19 18  1  0
 19 38  1  0
 20 19  2  0
 20 39  1  0
 21 11  1  0
 21 40  1  0
 21 41  1  0
 21 42  1  0
 22  9  2  0
 24 26  2  0
 26 23  2  0
 26  4  1  0
M  END
>  <lm5_entropy_jk>  (1) 
31.418959509749985

>  <number_of_rotatable_bonds>  (1) 
5

>  <IC50_NM>  (1) 
4800

>  <charge>  (1) 
0

$$$$
