3RPY
     RDKit          3D

 31 32  0  0  0  0  0  0  0  0999 V2000
   68.7862  151.8602  -49.7882 C   0  0  0  0  0  0  0  0  0  0  0  0
   66.0132  154.2738  -50.3393 N   0  0  0  0  0  0  0  0  0  0  0  0
   59.9841  152.9809  -44.3532 O   0  0  0  0  0  0  0  0  0  0  0  0
   66.7239  152.9906  -48.2108 S   0  0  0  0  0  0  0  0  0  0  0  0
   67.5241  153.4899  -51.9512 N   0  0  0  0  0  0  0  0  0  0  0  0
   60.7823  155.0100  -43.2085 O   0  0  0  0  0  0  0  0  0  0  0  0
   61.0727  153.7294  -43.7890 S   0  0  0  0  0  0  0  0  0  0  0  0
   64.6149  154.7012  -48.5383 N   0  0  0  0  0  0  0  0  0  0  0  0
   61.7472  152.7774  -42.6594 N   0  0  0  0  0  0  0  0  0  0  0  0
   67.6691  152.7666  -49.6531 C   0  0  0  0  0  0  0  0  0  0  0  0
   67.1038  153.5037  -50.6823 C   0  0  0  0  0  0  0  0  0  0  0  0
   65.6795  154.0539  -49.0942 C   0  0  0  0  0  0  0  0  0  0  0  0
   63.8526  154.4109  -47.3934 C   0  0  0  0  0  0  0  0  0  0  0  0
   63.9253  153.2193  -46.6725 C   0  0  0  0  0  0  0  0  0  0  0  0
   63.1212  153.0050  -45.5609 C   0  0  0  0  0  0  0  0  0  0  0  0
   62.2291  153.9825  -45.1413 C   0  0  0  0  0  0  0  0  0  0  0  0
   62.1356  155.1682  -45.8634 C   0  0  0  0  0  0  0  0  0  0  0  0
   62.9294  155.3757  -46.9753 C   0  0  0  0  0  0  0  0  0  0  0  0
   69.4574  151.8188  -50.8149 O   0  0  0  0  0  0  0  0  0  0  0  0
   69.1073  151.0713  -48.7004 N   0  0  0  0  0  0  0  0  0  0  0  0
   67.1153  154.1041  -52.6332 H   0  0  0  0  0  0  0  0  0  0  0  0
   68.3657  152.9666  -52.1407 H   0  0  0  0  0  0  0  0  0  0  0  0
   64.1723  155.3418  -49.1777 H   0  0  0  0  0  0  0  0  0  0  0  0
   61.9134  151.7923  -43.0014 H   0  0  0  0  0  0  0  0  0  0  0  0
   62.5358  153.1994  -42.1820 H   0  0  0  0  0  0  0  0  0  0  0  0
   64.5856  152.4258  -46.9793 H   0  0  0  0  0  0  0  0  0  0  0  0
   63.1722  152.0577  -45.0388 H   0  0  0  0  0  0  0  0  0  0  0  0
   61.4233  155.9256  -45.5642 H   0  0  0  0  0  0  0  0  0  0  0  0
   62.8031  156.2843  -47.5438 H   0  0  0  0  0  0  0  0  0  0  0  0
   69.7135  150.2975  -48.9192 H   0  0  0  0  0  0  0  0  0  0  0  0
   68.3909  150.8646  -48.0221 H   0  0  0  0  0  0  0  0  0  0  0  0
  1 10  1  0
  1 20  1  0
  2 12  2  0
  3  7  2  0
  5 11  1  0
  5 21  1  0
  5 22  1  0
  7  6  2  0
  7  9  1  0
  8 13  1  0
  8 23  1  0
  9 24  1  0
  9 25  1  0
 10  4  1  0
 11  2  1  0
 11 10  2  0
 12  8  1  0
 12  4  1  0
 13 18  1  0
 13 14  2  0
 14 15  1  0
 14 26  1  0
 15 16  2  0
 15 27  1  0
 16  7  1  0
 17 16  1  0
 17 28  1  0
 18 17  2  0
 18 29  1  0
 19  1  2  0
 20 30  1  0
 20 31  1  0
M  END
>  <lm5_entropy_jk>  (1) 
19.643205717801273

>  <number_of_rotatable_bonds>  (1) 
4

>  <IC50_NM>  (1) 
4800

>  <charge>  (1) 
0

$$$$
