3QTU_conf_04_mopac_water_best
     RDKit          3D

 44 46  0  0  0  0  0  0  0  0999 V2000
    0.8494   -0.4256    3.9439 N   0  0  0  0  0  0  0  0  0  0  0  0
    2.1368   -1.4857    2.2948 N   0  0  0  0  0  0  0  0  0  0  0  0
   -0.6771    0.7608    5.2941 N   0  0  0  0  0  0  0  0  0  0  0  0
    5.6365   -2.2588   -3.1616 N   0  0  0  0  0  0  0  0  0  0  0  0
   -4.2667    1.3090   -3.5098 N   0  0  0  0  0  0  0  0  0  0  0  0
   -0.8868    0.8030    2.8517 C   0  0  0  0  0  0  0  0  0  0  0  0
   -0.2729    0.4077    4.0709 C   0  0  0  0  0  0  0  0  0  0  0  0
    1.1195   -0.6838    2.6528 C   0  0  0  0  0  0  0  0  0  0  0  0
    2.5239   -1.7029    0.9394 C   0  0  0  0  0  0  0  0  0  0  0  0
   -2.0100    1.6491    2.7462 C   0  0  0  0  0  0  0  0  0  0  0  0
   -2.5553    1.9424    1.3895 C   0  0  0  0  0  0  0  0  0  0  0  0
    2.7815   -0.6278    0.0826 C   0  0  0  0  0  0  0  0  0  0  0  0
    3.1981   -0.8866   -1.2199 C   0  0  0  0  0  0  0  0  0  0  0  0
    3.3714   -2.2012   -1.6545 C   0  0  0  0  0  0  0  0  0  0  0  0
    3.1138   -3.2680   -0.7918 C   0  0  0  0  0  0  0  0  0  0  0  0
    2.6915   -3.0255    0.5116 C   0  0  0  0  0  0  0  0  0  0  0  0
   -1.9281    2.8773    0.5701 C   0  0  0  0  0  0  0  0  0  0  0  0
   -2.4570    3.1441   -0.6922 C   0  0  0  0  0  0  0  0  0  0  0  0
   -3.6059    2.4793   -1.1203 C   0  0  0  0  0  0  0  0  0  0  0  0
   -4.2320    1.5479   -0.2905 C   0  0  0  0  0  0  0  0  0  0  0  0
   -3.7044    1.2759    0.9696 C   0  0  0  0  0  0  0  0  0  0  0  0
   -2.5646    2.1415    3.7263 O   0  0  0  0  0  0  0  0  0  0  0  0
    3.7044   -3.9020   -3.6135 O   0  0  0  0  0  0  0  0  0  0  0  0
    3.4174   -1.4721   -4.1689 O   0  0  0  0  0  0  0  0  0  0  0  0
   -3.3742    3.7272   -3.4042 O   0  0  0  0  0  0  0  0  0  0  0  0
   -5.6751    3.2122   -2.5518 O   0  0  0  0  0  0  0  0  0  0  0  0
   -0.0456    0.0914    1.4962 S   0  0  0  0  0  0  0  0  0  0  0  0
    3.9379   -2.5024   -3.2728 S   0  0  0  0  0  0  0  0  0  0  0  0
   -4.2742    2.8234   -2.6942 S   0  0  0  0  0  0  0  0  0  0  0  0
    2.6597   -2.0055    3.0208 H   0  0  0  0  0  0  0  0  0  0  0  0
   -1.4807    1.3755    5.4028 H   0  0  0  0  0  0  0  0  0  0  0  0
   -0.2042    0.4536    6.1323 H   0  0  0  0  0  0  0  0  0  0  0  0
    6.2049   -3.1026   -3.1940 H   0  0  0  0  0  0  0  0  0  0  0  0
    6.0289   -1.5820   -3.8134 H   0  0  0  0  0  0  0  0  0  0  0  0
   -3.5143    1.1778   -4.1838 H   0  0  0  0  0  0  0  0  0  0  0  0
   -5.1432    1.0502   -3.9601 H   0  0  0  0  0  0  0  0  0  0  0  0
    2.6916    0.4048    0.4253 H   0  0  0  0  0  0  0  0  0  0  0  0
    3.3915   -0.0340   -1.8859 H   0  0  0  0  0  0  0  0  0  0  0  0
    3.2348   -4.3098   -1.1203 H   0  0  0  0  0  0  0  0  0  0  0  0
    2.4933   -3.8583    1.1899 H   0  0  0  0  0  0  0  0  0  0  0  0
   -1.0320    3.4012    0.9081 H   0  0  0  0  0  0  0  0  0  0  0  0
   -1.9545    3.8822   -1.3316 H   0  0  0  0  0  0  0  0  0  0  0  0
   -5.1399    1.0191   -0.6060 H   0  0  0  0  0  0  0  0  0  0  0  0
   -4.1887    0.5469    1.6223 H   0  0  0  0  0  0  0  0  0  0  0  0
  1  8  2  0
  2  9  1  0
  2 30  1  0
  3  7  1  0
  3 31  1  0
  3 32  1  0
  4 33  1  0
  4 34  1  0
  5 29  1  0
  5 35  1  0
  5 36  1  0
  6 27  1  0
  7  1  1  0
  7  6  2  0
  8  2  1  0
  8 27  1  0
  9 12  2  0
  9 16  1  0
 10  6  1  0
 10 11  1  0
 11 17  2  0
 11 21  1  0
 12 13  1  0
 12 37  1  0
 13 14  2  0
 13 38  1  0
 14 28  1  0
 15 14  1  0
 15 39  1  0
 16 15  2  0
 16 40  1  0
 17 18  1  0
 17 41  1  0
 18 19  2  0
 18 42  1  0
 19 29  1  0
 20 19  1  0
 20 43  1  0
 21 20  2  0
 21 44  1  0
 22 10  2  0
 23 28  2  0
 28 24  2  0
 28  4  1  0
 29 25  2  0
 29 26  2  0
M  END
>  <lm5_entropy_jk>  (1) 
23.933690845995674

>  <number_of_rotatable_bonds>  (1) 
6

>  <IC50_NM>  (1) 
70

>  <charge>  (1) 
0

>  <pdb_id>  (1) 
3QTU

>  <source_type>  (1) 
mopac_water_optimised_selected

>  <selected_conformer>  (1) 
conf_04

>  <water_minus_vacuum>  (1) 
-53.51952999999999

$$$$
