3QTU_conf_04_mopac_water_best
     RDKit          3D

 44 46  0  0  0  0  0  0  0  0999 V2000
    0.8454   -0.4027    3.9099 N   0  0  0  0  0  0  0  0  0  0  0  0
    2.1050   -1.4431    2.2654 N   0  0  0  0  0  0  0  0  0  0  0  0
   -0.6654    0.7658    5.2561 N   0  0  0  0  0  0  0  0  0  0  0  0
    5.6014   -2.2620   -3.1573 N   0  0  0  0  0  0  0  0  0  0  0  0
   -4.2425    1.3499   -3.4644 N   0  0  0  0  0  0  0  0  0  0  0  0
   -0.8651    0.7936    2.8514 C   0  0  0  0  0  0  0  0  0  0  0  0
   -0.2500    0.4004    4.0402 C   0  0  0  0  0  0  0  0  0  0  0  0
    1.0797   -0.6373    2.6445 C   0  0  0  0  0  0  0  0  0  0  0  0
    2.5184   -1.6901    0.9396 C   0  0  0  0  0  0  0  0  0  0  0  0
   -2.0083    1.6350    2.7561 C   0  0  0  0  0  0  0  0  0  0  0  0
   -2.5438    1.9168    1.3783 C   0  0  0  0  0  0  0  0  0  0  0  0
    2.7910   -0.6306    0.0784 C   0  0  0  0  0  0  0  0  0  0  0  0
    3.2140   -0.8855   -1.2125 C   0  0  0  0  0  0  0  0  0  0  0  0
    3.3979   -2.1974   -1.6243 C   0  0  0  0  0  0  0  0  0  0  0  0
    3.1530   -3.2577   -0.7667 C   0  0  0  0  0  0  0  0  0  0  0  0
    2.7038   -3.0013    0.5166 C   0  0  0  0  0  0  0  0  0  0  0  0
   -1.9296    2.8497    0.5549 C   0  0  0  0  0  0  0  0  0  0  0  0
   -2.4494    3.1187   -0.7033 C   0  0  0  0  0  0  0  0  0  0  0  0
   -3.5867    2.4480   -1.1173 C   0  0  0  0  0  0  0  0  0  0  0  0
   -4.2268    1.5318   -0.2937 C   0  0  0  0  0  0  0  0  0  0  0  0
   -3.7019    1.2681    0.9566 C   0  0  0  0  0  0  0  0  0  0  0  0
   -2.5811    2.0908    3.7467 O   0  0  0  0  0  0  0  0  0  0  0  0
    3.7588   -3.9067   -3.5289 O   0  0  0  0  0  0  0  0  0  0  0  0
    3.4605   -1.4848   -4.1149 O   0  0  0  0  0  0  0  0  0  0  0  0
   -3.3759    3.7100   -3.3630 O   0  0  0  0  0  0  0  0  0  0  0  0
   -5.6641    3.1266   -2.5318 O   0  0  0  0  0  0  0  0  0  0  0  0
    0.0122    0.1037    1.5022 S   0  0  0  0  0  0  0  0  0  0  0  0
    3.9730   -2.5153   -3.2616 S   0  0  0  0  0  6  0  0  0  0  0  0
   -4.2772    2.8123   -2.7042 S   0  0  0  0  0  6  0  0  0  0  0  0
    2.4820   -2.0186    2.9991 H   0  0  0  0  0  0  0  0  0  0  0  0
   -1.4711    1.3677    5.3105 H   0  0  0  0  0  0  0  0  0  0  0  0
   -0.1682    0.4510    6.0661 H   0  0  0  0  0  0  0  0  0  0  0  0
    6.1182   -3.1253   -3.2378 H   0  0  0  0  0  0  0  0  0  0  0  0
    5.9006   -1.5580   -3.8158 H   0  0  0  0  0  0  0  0  0  0  0  0
   -3.4766    1.2786   -4.1178 H   0  0  0  0  0  0  0  0  0  0  0  0
   -5.1400    1.1405   -3.8768 H   0  0  0  0  0  0  0  0  0  0  0  0
    2.6732    0.3846    0.4255 H   0  0  0  0  0  0  0  0  0  0  0  0
    3.4038   -0.0746   -1.8991 H   0  0  0  0  0  0  0  0  0  0  0  0
    3.2900   -4.2693   -1.1160 H   0  0  0  0  0  0  0  0  0  0  0  0
    2.4806   -3.8163    1.1900 H   0  0  0  0  0  0  0  0  0  0  0  0
   -1.0406    3.3622    0.8938 H   0  0  0  0  0  0  0  0  0  0  0  0
   -1.9830    3.8355   -1.3612 H   0  0  0  0  0  0  0  0  0  0  0  0
   -5.1266    1.0390   -0.6296 H   0  0  0  0  0  0  0  0  0  0  0  0
   -4.1894    0.5649    1.6160 H   0  0  0  0  0  0  0  0  0  0  0  0
  1  8  2  0
  2  9  1  0
  2 30  1  0
  3  7  1  0
  3 31  1  0
  3 32  1  0
  4 33  1  0
  4 34  1  0
  5 29  1  0
  5 35  1  0
  5 36  1  0
  6 27  1  0
  7  1  1  0
  7  6  2  0
  8  2  1  0
  8 27  1  0
  9 12  2  0
  9 16  1  0
 10  6  1  0
 10 11  1  0
 11 17  2  0
 11 21  1  0
 12 13  1  0
 12 37  1  0
 13 14  2  0
 13 38  1  0
 14 28  1  0
 15 14  1  0
 15 39  1  0
 16 15  2  0
 16 40  1  0
 17 18  1  0
 17 41  1  0
 18 19  2  0
 18 42  1  0
 19 29  1  0
 20 19  1  0
 20 43  1  0
 21 20  2  0
 21 44  1  0
 22 10  2  0
 23 28  2  0
 28 24  2  0
 28  4  1  0
 29 25  2  0
 29 26  2  0
M  END
>  <lm5_entropy_jk>  (1) 
23.933690845995674

>  <number_of_rotatable_bonds>  (1) 
6

>  <IC50_NM>  (1) 
70

>  <charge>  (1) 
0

>  <pdb_id>  (1) 
3QTU

>  <source_type>  (1) 
mopac_water_optimised_selected

>  <selected_conformer>  (1) 
conf_04

>  <water_minus_vacuum>  (1) 
-53.519529999999989

$$$$
