3QTU_conf_04_original_rdkit
     RDKit          3D

 44 46  0  0  0  0  0  0  0  0999 V2000
    0.8388   -0.5965    3.6245 N   0  0  0  0  0  0  0  0  0  0  0  0
    1.5292   -2.0703    1.9439 N   0  0  0  0  0  0  0  0  0  0  0  0
   -0.0760    1.0019    5.0185 N   0  0  0  0  0  0  0  0  0  0  0  0
    6.1526   -2.3371   -2.6676 N   0  0  0  0  0  0  0  0  0  0  0  0
   -4.5935    1.5362   -3.3048 N   0  0  0  0  0  0  0  0  0  0  0  0
   -0.9260    0.6848    2.7778 C   0  0  0  0  0  0  0  0  0  0  0  0
   -0.0820    0.3959    3.8265 C   0  0  0  0  0  0  0  0  0  0  0  0
    0.7360   -1.0643    2.3976 C   0  0  0  0  0  0  0  0  0  0  0  0
    2.1982   -2.0797    0.6973 C   0  0  0  0  0  0  0  0  0  0  0  0
   -2.0056    1.6497    2.7371 C   0  0  0  0  0  0  0  0  0  0  0  0
   -2.6369    2.0023    1.4441 C   0  0  0  0  0  0  0  0  0  0  0  0
    2.5977   -0.9117    0.0329 C   0  0  0  0  0  0  0  0  0  0  0  0
    3.3154   -0.9760   -1.1655 C   0  0  0  0  0  0  0  0  0  0  0  0
    3.6606   -2.2195   -1.6949 C   0  0  0  0  0  0  0  0  0  0  0  0
    3.2818   -3.3936   -1.0443 C   0  0  0  0  0  0  0  0  0  0  0  0
    2.5690   -3.3174    0.1543 C   0  0  0  0  0  0  0  0  0  0  0  0
   -1.9012    2.6633    0.4529 C   0  0  0  0  0  0  0  0  0  0  0  0
   -2.5084    2.9792   -0.7668 C   0  0  0  0  0  0  0  0  0  0  0  0
   -3.8459    2.6294   -0.9791 C   0  0  0  0  0  0  0  0  0  0  0  0
   -4.5900    1.9936    0.0217 C   0  0  0  0  0  0  0  0  0  0  0  0
   -3.9842    1.6806    1.2397 C   0  0  0  0  0  0  0  0  0  0  0  0
   -2.4565    2.2194    3.7326 O   0  0  0  0  0  0  0  0  0  0  0  0
    4.3351   -3.5918   -3.8328 O   0  0  0  0  0  0  0  0  0  0  0  0
    4.4127   -1.0626   -3.9323 O   0  0  0  0  0  0  0  0  0  0  0  0
   -3.7652    3.8850   -3.2848 O   0  0  0  0  0  0  0  0  0  0  0  0
   -6.0216    3.3174   -2.2742 O   0  0  0  0  0  0  0  0  0  0  0  0
   -0.5428   -0.3617    1.4714 S   0  0  0  0  0  0  0  0  0  0  0  0
    4.5642   -2.3065   -3.2147 S   0  0  0  0  0  0  0  0  0  0  0  0
   -4.6282    3.0194   -2.5170 S   0  0  0  0  0  0  0  0  0  0  0  0
    2.1749   -2.3825    2.6627 H   0  0  0  0  0  0  0  0  0  0  0  0
   -0.7974    1.6755    5.2886 H   0  0  0  0  0  0  0  0  0  0  0  0
    0.4922    0.6355    5.7745 H   0  0  0  0  0  0  0  0  0  0  0  0
    6.6025   -3.2066   -2.9523 H   0  0  0  0  0  0  0  0  0  0  0  0
    6.6432   -1.5024   -2.9831 H   0  0  0  0  0  0  0  0  0  0  0  0
   -4.0230    1.6145   -4.1477 H   0  0  0  0  0  0  0  0  0  0  0  0
   -5.5432    1.2150   -3.4683 H   0  0  0  0  0  0  0  0  0  0  0  0
    2.3696    0.0659    0.4462 H   0  0  0  0  0  0  0  0  0  0  0  0
    3.6099   -0.0566   -1.6652 H   0  0  0  0  0  0  0  0  0  0  0  0
    3.5476   -4.3646   -1.4570 H   0  0  0  0  0  0  0  0  0  0  0  0
    2.2881   -4.2379    0.6596 H   0  0  0  0  0  0  0  0  0  0  0  0
   -0.8590    2.9390    0.6205 H   0  0  0  0  0  0  0  0  0  0  0  0
   -1.9376    3.4872   -1.5424 H   0  0  0  0  0  0  0  0  0  0  0  0
   -5.6350    1.7380   -0.1475 H   0  0  0  0  0  0  0  0  0  0  0  0
   -4.5603    1.1796    2.0174 H   0  0  0  0  0  0  0  0  0  0  0  0
  1  8  2  0
  2  9  1  0
  2 30  1  0
  3  7  1  0
  3 31  1  0
  3 32  1  0
  4 33  1  0
  4 34  1  0
  5 29  1  0
  5 35  1  0
  5 36  1  0
  6 27  1  0
  7  1  1  0
  7  6  2  0
  8  2  1  0
  8 27  1  0
  9 12  2  0
  9 16  1  0
 10  6  1  0
 10 11  1  0
 11 17  2  0
 11 21  1  0
 12 13  1  0
 12 37  1  0
 13 14  2  0
 13 38  1  0
 14 28  1  0
 15 14  1  0
 15 39  1  0
 16 15  2  0
 16 40  1  0
 17 18  1  0
 17 41  1  0
 18 19  2  0
 18 42  1  0
 19 29  1  0
 20 19  1  0
 20 43  1  0
 21 20  2  0
 21 44  1  0
 22 10  2  0
 23 28  2  0
 28 24  2  0
 28  4  1  0
 29 25  2  0
 29 26  2  0
M  END
>  <lm5_entropy_jk>  (1) 
23.933690845995674

>  <number_of_rotatable_bonds>  (1) 
6

>  <IC50_NM>  (1) 
70

>  <charge>  (1) 
0

>  <pdb_id>  (1) 
3QTU

>  <source_type>  (1) 
original_rdkit_same_selected_conformer

>  <selected_conformer>  (1) 
conf_04

>  <selection_source>  (1) 
lowest_water_minus_vacuum

>  <water_minus_vacuum>  (1) 
-53.51952999999999

$$$$
