3QTU_conf_04_original_rdkit
     RDKit          3D

 44 46  0  0  0  0  0  0  0  0999 V2000
    0.8868   -0.5389    3.6014 N   0  0  0  0  0  0  0  0  0  0  0  0
    1.5938   -2.0331    1.9521 N   0  0  0  0  0  0  0  0  0  0  0  0
   -0.1756    0.9903    5.0159 N   0  0  0  0  0  0  0  0  0  0  0  0
    6.1367   -2.3376   -2.6939 N   0  0  0  0  0  0  0  0  0  0  0  0
   -4.6548    1.5632   -3.2993 N   0  0  0  0  0  0  0  0  0  0  0  0
   -0.9474    0.6374    2.7504 C   0  0  0  0  0  0  0  0  0  0  0  0
   -0.0995    0.3834    3.8257 C   0  0  0  0  0  0  0  0  0  0  0  0
    0.7843   -1.0196    2.3934 C   0  0  0  0  0  0  0  0  0  0  0  0
    2.2607   -2.0539    0.7038 C   0  0  0  0  0  0  0  0  0  0  0  0
   -1.9887    1.6179    2.7441 C   0  0  0  0  0  0  0  0  0  0  0  0
   -2.6308    1.9475    1.4265 C   0  0  0  0  0  0  0  0  0  0  0  0
    2.6315   -0.8848    0.0484 C   0  0  0  0  0  0  0  0  0  0  0  0
    3.3139   -0.9570   -1.1548 C   0  0  0  0  0  0  0  0  0  0  0  0
    3.6489   -2.1951   -1.6799 C   0  0  0  0  0  0  0  0  0  0  0  0
    3.2899   -3.3664   -1.0282 C   0  0  0  0  0  0  0  0  0  0  0  0
    2.5896   -3.2935    0.1600 C   0  0  0  0  0  0  0  0  0  0  0  0
   -1.8895    2.5564    0.4221 C   0  0  0  0  0  0  0  0  0  0  0  0
   -2.4916    2.8974   -0.7792 C   0  0  0  0  0  0  0  0  0  0  0  0
   -3.8309    2.5992   -0.9671 C   0  0  0  0  0  0  0  0  0  0  0  0
   -4.5889    2.0084    0.0340 C   0  0  0  0  0  0  0  0  0  0  0  0
   -3.9850    1.6902    1.2372 C   0  0  0  0  0  0  0  0  0  0  0  0
   -2.3484    2.1982    3.7672 O   0  0  0  0  0  0  0  0  0  0  0  0
    4.2752   -3.5578   -3.7908 O   0  0  0  0  0  0  0  0  0  0  0  0
    4.3729   -1.0505   -3.8845 O   0  0  0  0  0  0  0  0  0  0  0  0
   -3.7159    3.8769   -3.2166 O   0  0  0  0  0  0  0  0  0  0  0  0
   -5.9655    3.3660   -2.2295 O   0  0  0  0  0  0  0  0  0  0  0  0
   -0.4613   -0.3580    1.3974 S   0  0  0  0  0  0  0  0  0  0  0  0
    4.5603   -2.2887   -3.1881 S   0  0  0  0  0  6  0  0  0  0  0  0
   -4.6059    3.0086   -2.5051 S   0  0  0  0  0  6  0  0  0  0  0  0
    2.0752   -2.4973    2.7065 H   0  0  0  0  0  0  0  0  0  0  0  0
   -0.9214    1.6506    5.1585 H   0  0  0  0  0  0  0  0  0  0  0  0
    0.4631    0.7345    5.7431 H   0  0  0  0  0  0  0  0  0  0  0  0
    6.5800   -3.1986   -2.9782 H   0  0  0  0  0  0  0  0  0  0  0  0
    6.6415   -1.5163   -2.9928 H   0  0  0  0  0  0  0  0  0  0  0  0
   -4.0208    1.5444   -4.0844 H   0  0  0  0  0  0  0  0  0  0  0  0
   -5.6014    1.3131   -3.5438 H   0  0  0  0  0  0  0  0  0  0  0  0
    2.3877    0.0754    0.4788 H   0  0  0  0  0  0  0  0  0  0  0  0
    3.5918   -0.0601   -1.6868 H   0  0  0  0  0  0  0  0  0  0  0  0
    3.5384   -4.3208   -1.4660 H   0  0  0  0  0  0  0  0  0  0  0  0
    2.2824   -4.1941    0.6718 H   0  0  0  0  0  0  0  0  0  0  0  0
   -0.8435    2.7720    0.5849 H   0  0  0  0  0  0  0  0  0  0  0  0
   -1.9392    3.3921   -1.5632 H   0  0  0  0  0  0  0  0  0  0  0  0
   -5.6397    1.8223   -0.1277 H   0  0  0  0  0  0  0  0  0  0  0  0
   -4.5593    1.2457    2.0367 H   0  0  0  0  0  0  0  0  0  0  0  0
  1  8  2  0
  2  9  1  0
  2 30  1  0
  3  7  1  0
  3 31  1  0
  3 32  1  0
  4 33  1  0
  4 34  1  0
  5 29  1  0
  5 35  1  0
  5 36  1  0
  6 27  1  0
  7  1  1  0
  7  6  2  0
  8  2  1  0
  8 27  1  0
  9 12  2  0
  9 16  1  0
 10  6  1  0
 10 11  1  0
 11 17  2  0
 11 21  1  0
 12 13  1  0
 12 37  1  0
 13 14  2  0
 13 38  1  0
 14 28  1  0
 15 14  1  0
 15 39  1  0
 16 15  2  0
 16 40  1  0
 17 18  1  0
 17 41  1  0
 18 19  2  0
 18 42  1  0
 19 29  1  0
 20 19  1  0
 20 43  1  0
 21 20  2  0
 21 44  1  0
 22 10  2  0
 23 28  2  0
 28 24  2  0
 28  4  1  0
 29 25  2  0
 29 26  2  0
M  END
>  <lm5_entropy_jk>  (1) 
23.933690845995674

>  <number_of_rotatable_bonds>  (1) 
6

>  <IC50_NM>  (1) 
70

>  <charge>  (1) 
0

>  <pdb_id>  (1) 
3QTU

>  <source_type>  (1) 
original_rdkit_same_selected_conformer

>  <selected_conformer>  (1) 
conf_04

>  <selection_source>  (1) 
lowest_water_minus_vacuum

>  <water_minus_vacuum>  (1) 
-53.519529999999989

$$$$
