3QQK
     RDKit          3D

 31 32  0  0  0  0  0  0  0  0999 V2000
   63.0334  153.0889  -46.4787 C   0  0  0  0  0  0  0  0  0  0  0  0
   62.9166  153.8385  -47.5613 C   0  0  0  0  0  0  0  0  0  0  0  0
   63.7464  155.0656  -47.8033 C   0  0  0  0  0  0  0  0  0  0  0  0
   64.2824  155.1635  -49.1447 N   0  0  0  0  0  0  0  0  0  0  0  0
   65.2966  154.4316  -49.5921 C   0  0  0  0  0  0  0  0  0  0  0  0
   65.7690  154.5269  -50.8208 N   0  0  0  0  0  0  0  0  0  0  0  0
   66.8528  153.7072  -50.9821 C   0  0  0  0  0  0  0  0  0  0  0  0
   67.2481  152.9754  -49.8563 C   0  0  0  0  0  0  0  0  0  0  0  0
   66.1226  153.3018  -48.5551 S   0  0  0  0  0  0  0  0  0  0  0  0
   67.4691  153.6680  -52.1609 N   0  0  0  0  0  0  0  0  0  0  0  0
   68.3850  152.1102  -49.8569 C   0  0  0  0  0  0  0  0  0  0  0  0
   68.5914  151.0575  -48.8108 C   0  0  0  0  0  0  0  0  0  0  0  0
   67.5291  150.3603  -48.2422 C   0  0  0  0  0  0  0  0  0  0  0  0
   67.7672  149.3032  -47.3760 C   0  0  0  0  0  0  0  0  0  0  0  0
   69.0721  148.9438  -47.0730 C   0  0  0  0  0  0  0  0  0  0  0  0
   70.1333  149.6375  -47.6363 C   0  0  0  0  0  0  0  0  0  0  0  0
   69.8975  150.6841  -48.5112 C   0  0  0  0  0  0  0  0  0  0  0  0
   69.2310  152.1981  -50.7568 O   0  0  0  0  0  0  0  0  0  0  0  0
   62.3900  152.2397  -46.3022 H   0  0  0  0  0  0  0  0  0  0  0  0
   63.7694  153.3129  -45.7147 H   0  0  0  0  0  0  0  0  0  0  0  0
   62.1815  153.6209  -48.3288 H   0  0  0  0  0  0  0  0  0  0  0  0
   63.1193  155.9442  -47.6667 H   0  0  0  0  0  0  0  0  0  0  0  0
   64.5539  155.1133  -47.0740 H   0  0  0  0  0  0  0  0  0  0  0  0
   63.7348  155.6920  -49.8249 H   0  0  0  0  0  0  0  0  0  0  0  0
   67.0635  154.1156  -52.9701 H   0  0  0  0  0  0  0  0  0  0  0  0
   68.2502  153.0359  -52.2288 H   0  0  0  0  0  0  0  0  0  0  0  0
   66.5132  150.6102  -48.5036 H   0  0  0  0  0  0  0  0  0  0  0  0
   66.9385  148.7504  -46.9592 H   0  0  0  0  0  0  0  0  0  0  0  0
   69.2486  148.0918  -46.4339 H   0  0  0  0  0  0  0  0  0  0  0  0
   71.1486  149.3255  -47.4430 H   0  0  0  0  0  0  0  0  0  0  0  0
   70.7147  151.1965  -48.9967 H   0  0  0  0  0  0  0  0  0  0  0  0
  1  2  2  0
  1 19  1  0
  1 20  1  0
  2 21  1  0
  3  2  1  0
  3 22  1  0
  3 23  1  0
  4  3  1  0
  4 24  1  0
  5  4  1  0
  5  9  1  0
  6  5  2  0
  7  6  1  0
  7  8  2  0
  8  9  1  0
 10  7  1  0
 10 25  1  0
 10 26  1  0
 11  8  1  0
 11 12  1  0
 12 17  1  0
 12 13  2  0
 13 14  1  0
 13 27  1  0
 14 15  2  0
 14 28  1  0
 15 29  1  0
 16 15  1  0
 16 30  1  0
 17 16  2  0
 17 31  1  0
 18 11  2  0
M  END
>  <lm5_entropy_jk>  (1) 
22.397995528352578

>  <number_of_rotatable_bonds>  (1) 
5

>  <IC50_NM>  (1) 
15000

>  <charge>  (1) 
0

$$$$
