3QTW
     RDKit          3D

 33 35  0  0  1  0  0  0  0  0999 V2000
   65.8572  154.3638  -50.3568 N   0  0  0  0  0  0  0  0  0  0  0  0
   67.3395  153.6558  -52.0093 N   0  0  0  0  0  0  0  0  0  0  0  0
   70.9496  150.1257  -47.6998 N   0  0  0  0  0  0  0  0  0  0  0  0
   64.4715  154.6884  -48.5397 N   0  0  0  0  0  0  0  0  0  0  0  0
   66.9320  153.6155  -50.7442 C   0  0  0  0  0  0  0  0  0  0  0  0
   67.5280  152.8350  -49.7545 C   0  0  0  0  0  0  0  0  0  0  0  0
   68.6339  151.9688  -49.9711 C   0  0  0  0  0  0  0  0  0  0  0  0
   69.0607  151.0132  -48.8952 C   0  0  0  0  0  0  0  0  0  0  0  0
   70.4132  150.9447  -48.5987 C   0  0  0  0  0  0  0  0  0  0  0  0
   70.0990  149.3030  -47.0691 C   0  0  0  0  0  0  0  0  0  0  0  0
   68.7345  149.2770  -47.3006 C   0  0  0  0  0  0  0  0  0  0  0  0
   68.1982  150.1549  -48.2264 C   0  0  0  0  0  0  0  0  0  0  0  0
   65.5437  154.0917  -49.1085 C   0  0  0  0  0  0  0  0  0  0  0  0
   63.7907  154.3740  -47.3462 C   0  0  0  0  0  0  0  0  0  0  0  0
   62.8490  155.3042  -46.9011 C   0  0  0  0  0  0  0  0  0  0  0  0
   62.1568  155.0907  -45.7253 C   0  0  0  0  0  0  0  0  0  0  0  0
   62.3905  153.9480  -44.9714 C   0  0  0  0  0  0  0  0  0  0  0  0
   63.2978  153.0080  -45.4289 C   0  0  0  0  0  0  0  0  0  0  0  0
   63.9844  153.2035  -46.6193 C   0  0  0  0  0  0  0  0  0  0  0  0
   69.2792  152.0068  -51.0220 O   0  0  0  0  0  0  0  0  0  0  0  0
   66.6092  153.0043  -48.2816 S   0  0  0  0  0  0  0  0  0  0  0  0
   66.8630  154.2172  -52.6901 H   0  0  0  0  0  0  0  0  0  0  0  0
   68.1442  153.0929  -52.2314 H   0  0  0  0  0  0  0  0  0  0  0  0
   71.0897  151.6026  -49.1270 H   0  0  0  0  0  0  0  0  0  0  0  0
   70.5357  148.6395  -46.3354 H   0  0  0  0  0  0  0  0  0  0  0  0
   68.1031  148.5763  -46.7672 H   0  0  0  0  0  0  0  0  0  0  0  0
   67.1357  150.1418  -48.4300 H   0  0  0  0  0  0  0  0  0  0  0  0
   63.9283  155.2434  -49.1828 H   0  0  0  0  0  0  0  0  0  0  0  0
   62.6471  156.1773  -47.5034 H   0  0  0  0  0  0  0  0  0  0  0  0
   61.4317  155.8245  -45.4018 H   0  0  0  0  0  0  0  0  0  0  0  0
   61.8760  153.7834  -44.0379 H   0  0  0  0  0  0  0  0  0  0  0  0
   63.4667  152.0977  -44.8640 H   0  0  0  0  0  0  0  0  0  0  0  0
   64.6364  152.4205  -46.9677 H   0  0  0  0  0  0  0  0  0  0  0  0
  1  5  1  0
  1 13  2  0
  2  5  1  0
  2 22  1  0
  2 23  1  0
  3  9  2  0
  3 10  1  0
  4 13  1  0
  4 14  1  0
  4 28  1  0
  5  6  2  0
  6 21  1  0
  7  6  1  0
  7  8  1  0
  7 20  2  0
  8  9  1  0
  8 12  2  0
  9 24  1  0
 10 11  2  0
 10 25  1  0
 11 12  1  0
 11 26  1  0
 12 27  1  0
 13 21  1  0
 14 15  2  0
 14 19  1  0
 15 16  1  0
 15 29  1  0
 16 17  2  0
 16 30  1  0
 17 18  1  0
 17 31  1  0
 18 19  2  0
 18 32  1  0
 19 33  1  0
M  END
>  <lm5_entropy_jk>  (1) 
20.66385753466715

>  <number_of_rotatable_bonds>  (1) 
4

>  <IC50_NM>  (1) 
650

>  <charge>  (1) 
0

$$$$
