3RMF
     RDKit          3D

 45 48  0  0  0  0  0  0  0  0999 V2000
   65.8970  154.4395  -50.5611 N   0  0  0  0  0  0  0  0  0  0  0  0
   64.5651  155.0285  -48.7211 N   0  0  0  0  0  0  0  0  0  0  0  0
   67.4036  153.5102  -52.1157 N   0  0  0  0  0  0  0  0  0  0  0  0
   62.1378  152.9756  -42.9261 N   0  0  0  0  0  0  0  0  0  0  0  0
   67.5143  152.9016  -49.7943 C   0  0  0  0  0  0  0  0  0  0  0  0
   66.9562  153.6137  -50.8629 C   0  0  0  0  0  0  0  0  0  0  0  0
   65.5929  154.3266  -49.2918 C   0  0  0  0  0  0  0  0  0  0  0  0
   63.8330  154.7009  -47.5473 C   0  0  0  0  0  0  0  0  0  0  0  0
   68.4303  151.7959  -49.8836 C   0  0  0  0  0  0  0  0  0  0  0  0
   68.6799  150.9273  -48.6730 C   0  0  0  0  0  0  0  0  0  0  0  0
   69.9632  150.3391  -48.5280 C   0  0  0  0  0  0  0  0  0  0  0  0
   70.2546  149.5588  -47.4480 C   0  0  0  0  0  0  0  0  0  0  0  0
   69.3084  149.3600  -46.4104 C   0  0  0  0  0  0  0  0  0  0  0  0
   68.0227  149.9219  -46.5623 C   0  0  0  0  0  0  0  0  0  0  0  0
   67.7202  150.6449  -47.7390 C   0  0  0  0  0  0  0  0  0  0  0  0
   62.9038  155.6398  -47.0941 C   0  0  0  0  0  0  0  0  0  0  0  0
   62.1380  155.4086  -45.9687 C   0  0  0  0  0  0  0  0  0  0  0  0
   62.2983  154.2301  -45.2558 C   0  0  0  0  0  0  0  0  0  0  0  0
   63.2041  153.2804  -45.6989 C   0  0  0  0  0  0  0  0  0  0  0  0
   63.9550  153.5034  -46.8427 C   0  0  0  0  0  0  0  0  0  0  0  0
   69.6055  148.6326  -45.2291 C   0  0  0  0  0  0  0  0  0  0  0  0
   68.6903  148.5523  -44.2194 C   0  0  0  0  0  0  0  0  0  0  0  0
   67.4205  149.1604  -44.3537 C   0  0  0  0  0  0  0  0  0  0  0  0
   67.0825  149.7992  -45.5096 C   0  0  0  0  0  0  0  0  0  0  0  0
   69.0362  151.5507  -50.9258 O   0  0  0  0  0  0  0  0  0  0  0  0
   60.1239  153.0783  -44.4648 O   0  0  0  0  0  0  0  0  0  0  0  0
   60.8512  155.0577  -43.1918 O   0  0  0  0  0  0  0  0  0  0  0  0
   66.6421  153.3368  -48.3602 S   0  0  0  0  0  0  0  0  0  0  0  0
   61.1937  153.8601  -43.9135 S   0  0  0  0  0  0  0  0  0  0  0  0
   63.9912  155.5323  -49.3970 H   0  0  0  0  0  0  0  0  0  0  0  0
   67.0160  154.0631  -52.8769 H   0  0  0  0  0  0  0  0  0  0  0  0
   68.1637  152.8770  -52.2978 H   0  0  0  0  0  0  0  0  0  0  0  0
   62.1284  151.9711  -43.1708 H   0  0  0  0  0  0  0  0  0  0  0  0
   61.9994  153.1672  -41.9507 H   0  0  0  0  0  0  0  0  0  0  0  0
   70.6843  150.4982  -49.3131 H   0  0  0  0  0  0  0  0  0  0  0  0
   71.2097  149.0629  -47.3572 H   0  0  0  0  0  0  0  0  0  0  0  0
   66.6981  150.9599  -47.8746 H   0  0  0  0  0  0  0  0  0  0  0  0
   62.7441  156.5421  -47.6636 H   0  0  0  0  0  0  0  0  0  0  0  0
   61.4056  156.1313  -45.6468 H   0  0  0  0  0  0  0  0  0  0  0  0
   63.3239  152.3456  -45.1680 H   0  0  0  0  0  0  0  0  0  0  0  0
   64.5983  152.7149  -47.1866 H   0  0  0  0  0  0  0  0  0  0  0  0
   70.5549  148.1224  -45.1507 H   0  0  0  0  0  0  0  0  0  0  0  0
   68.9185  148.0047  -43.3168 H   0  0  0  0  0  0  0  0  0  0  0  0
   66.7035  149.1026  -43.5477 H   0  0  0  0  0  0  0  0  0  0  0  0
   66.0953  150.2302  -45.6284 H   0  0  0  0  0  0  0  0  0  0  0  0
  1  7  2  0
  2  8  1  0
  2 30  1  0
  3  6  1  0
  3 31  1  0
  3 32  1  0
  4 33  1  0
  4 34  1  0
  5 28  1  0
  6  1  1  0
  6  5  2  0
  7  2  1  0
  7 28  1  0
  8 16  2  0
  8 20  1  0
  9  5  1  0
  9 10  1  0
 10 11  2  0
 10 15  1  0
 11 12  1  0
 11 35  1  0
 12 13  2  0
 12 36  1  0
 13 21  1  0
 14 13  1  0
 14 24  1  0
 15 14  2  0
 15 37  1  0
 16 17  1  0
 16 38  1  0
 17 18  2  0
 17 39  1  0
 18 29  1  0
 19 18  1  0
 19 40  1  0
 20 19  2  0
 20 41  1  0
 21 22  2  0
 21 42  1  0
 22 43  1  0
 23 22  1  0
 23 44  1  0
 24 23  2  0
 24 45  1  0
 25  9  2  0
 26 29  2  0
 29 27  2  0
 29  4  1  0
M  END
>  <lm5_entropy_jk>  (1) 
22.397995528352578

>  <number_of_rotatable_bonds>  (1) 
5

>  <IC50_NM>  (1) 
82000

>  <charge>  (1) 
0

$$$$
