3QU0
     RDKit          3D

 38 40  0  0  0  0  0  0  0  0999 V2000
   65.6256  154.1049  -50.7199 N   0  0  0  0  0  0  0  0  0  0  0  0
   64.0133  154.6127  -49.1270 N   0  0  0  0  0  0  0  0  0  0  0  0
   70.3414  149.7236  -47.3746 N   0  0  0  0  0  0  0  0  0  0  0  0
   67.4052  153.3488  -52.0343 N   0  0  0  0  0  0  0  0  0  0  0  0
   61.2493  153.0119  -43.2660 N   0  0  0  0  0  0  0  0  0  0  0  0
   67.1953  152.6627  -49.7332 C   0  0  0  0  0  0  0  0  0  0  0  0
   66.7763  153.3713  -50.8647 C   0  0  0  0  0  0  0  0  0  0  0  0
   65.1274  153.9552  -49.5144 C   0  0  0  0  0  0  0  0  0  0  0  0
   63.2383  154.3871  -47.9833 C   0  0  0  0  0  0  0  0  0  0  0  0
   68.3722  151.8566  -49.7095 C   0  0  0  0  0  0  0  0  0  0  0  0
   68.6498  150.8689  -48.6131 C   0  0  0  0  0  0  0  0  0  0  0  0
   67.6625  150.1230  -47.9785 C   0  0  0  0  0  0  0  0  0  0  0  0
   68.0330  149.1652  -47.0538 C   0  0  0  0  0  0  0  0  0  0  0  0
   69.3839  148.9995  -46.7918 C   0  0  0  0  0  0  0  0  0  0  0  0
   69.9732  150.6198  -48.2884 C   0  0  0  0  0  0  0  0  0  0  0  0
   63.1307  153.1295  -47.3849 C   0  0  0  0  0  0  0  0  0  0  0  0
   62.3274  152.9660  -46.2748 C   0  0  0  0  0  0  0  0  0  0  0  0
   61.6137  154.0476  -45.7723 C   0  0  0  0  0  0  0  0  0  0  0  0
   61.6836  155.2900  -46.3771 C   0  0  0  0  0  0  0  0  0  0  0  0
   62.5012  155.4566  -47.4780 C   0  0  0  0  0  0  0  0  0  0  0  0
   69.2004  151.9279  -50.6235 O   0  0  0  0  0  0  0  0  0  0  0  0
   59.5140  152.7962  -44.9377 O   0  0  0  0  0  0  0  0  0  0  0  0
   59.9689  155.0323  -44.0199 O   0  0  0  0  0  0  0  0  0  0  0  0
   66.0398  152.9189  -48.4509 S   0  0  0  0  0  0  0  0  0  0  0  0
   60.4781  153.7596  -44.4638 S   0  0  0  0  0  0  0  0  0  0  0  0
   63.6486  155.3288  -49.7577 H   0  0  0  0  0  0  0  0  0  0  0  0
   67.0794  153.9095  -52.8083 H   0  0  0  0  0  0  0  0  0  0  0  0
   68.2799  152.8468  -52.0469 H   0  0  0  0  0  0  0  0  0  0  0  0
   61.4195  152.0153  -43.4699 H   0  0  0  0  0  0  0  0  0  0  0  0
   62.0378  153.5045  -42.8750 H   0  0  0  0  0  0  0  0  0  0  0  0
   66.6226  150.2545  -48.2360 H   0  0  0  0  0  0  0  0  0  0  0  0
   67.2955  148.5387  -46.5794 H   0  0  0  0  0  0  0  0  0  0  0  0
   69.7100  148.2391  -46.0940 H   0  0  0  0  0  0  0  0  0  0  0  0
   70.7502  151.1719  -48.7992 H   0  0  0  0  0  0  0  0  0  0  0  0
   63.6225  152.2729  -47.8119 H   0  0  0  0  0  0  0  0  0  0  0  0
   62.2310  151.9963  -45.8076 H   0  0  0  0  0  0  0  0  0  0  0  0
   61.0769  156.1035  -46.0122 H   0  0  0  0  0  0  0  0  0  0  0  0
   62.5265  156.3992  -47.9958 H   0  0  0  0  0  0  0  0  0  0  0  0
  1  8  2  0
  2  9  1  0
  2 26  1  0
  3 14  2  0
  4  7  1  0
  4 27  1  0
  4 28  1  0
  5 29  1  0
  5 30  1  0
  6 24  1  0
  7  1  1  0
  7  6  2  0
  8  2  1  0
  8 24  1  0
  9 20  1  0
  9 16  2  0
 10  6  1  0
 10 11  1  0
 11 15  2  0
 11 12  1  0
 12 13  2  0
 12 31  1  0
 13 14  1  0
 13 32  1  0
 14 33  1  0
 15  3  1  0
 15 34  1  0
 16 17  1  0
 16 35  1  0
 17 18  2  0
 17 36  1  0
 18 25  1  0
 19 18  1  0
 19 37  1  0
 20 19  2  0
 20 38  1  0
 21 10  2  0
 22 25  2  0
 25 23  2  0
 25  5  1  0
M  END
>  <lm5_entropy_jk>  (1) 
22.397995528352578

>  <number_of_rotatable_bonds>  (1) 
5

>  <IC50_NM>  (1) 
20

>  <charge>  (1) 
0

$$$$
