3R9D
     RDKit          3D

 41 43  0  0  0  0  0  0  0  0999 V2000
   65.6996  154.3362  -50.5807 N   0  0  0  0  0  0  0  0  0  0  0  0
   64.0970  154.7490  -48.9491 N   0  0  0  0  0  0  0  0  0  0  0  0
   68.7160  151.3565  -48.5197 N   0  0  0  0  0  0  0  0  0  0  0  0
   67.4853  153.6813  -51.9493 N   0  0  0  0  0  0  0  0  0  0  0  0
   61.5011  153.1430  -43.0606 N   0  0  0  0  0  0  0  0  0  0  0  0
   67.3503  152.9564  -49.6565 C   0  0  0  0  0  0  0  0  0  0  0  0
   66.8739  153.6418  -50.7647 C   0  0  0  0  0  0  0  0  0  0  0  0
   65.2297  154.1524  -49.3703 C   0  0  0  0  0  0  0  0  0  0  0  0
   63.3832  154.5351  -47.7621 C   0  0  0  0  0  0  0  0  0  0  0  0
   68.5392  152.1438  -49.6420 C   0  0  0  0  0  0  0  0  0  0  0  0
   62.5939  155.5882  -47.3014 C   0  0  0  0  0  0  0  0  0  0  0  0
   61.8241  155.4468  -46.1645 C   0  0  0  0  0  0  0  0  0  0  0  0
   61.8606  154.2462  -45.4768 C   0  0  0  0  0  0  0  0  0  0  0  0
   62.6148  153.1733  -45.9362 C   0  0  0  0  0  0  0  0  0  0  0  0
   63.3791  153.3168  -47.0775 C   0  0  0  0  0  0  0  0  0  0  0  0
   69.6997  150.3854  -48.2780 C   0  0  0  0  0  0  0  0  0  0  0  0
   69.4557  149.5080  -47.2171 C   0  0  0  0  0  0  0  0  0  0  0  0
   70.3613  148.5237  -46.8930 C   0  0  0  0  0  0  0  0  0  0  0  0
   71.5387  148.3989  -47.6161 C   0  0  0  0  0  0  0  0  0  0  0  0
   71.7552  149.2782  -48.6464 C   0  0  0  0  0  0  0  0  0  0  0  0
   70.8784  150.2743  -49.0173 C   0  0  0  0  0  0  0  0  0  0  0  0
   69.3494  152.1534  -50.5659 O   0  0  0  0  0  0  0  0  0  0  0  0
   59.6638  153.1534  -44.7639 O   0  0  0  0  0  0  0  0  0  0  0  0
   60.2979  155.2314  -43.6110 O   0  0  0  0  0  0  0  0  0  0  0  0
   66.2277  153.1572  -48.3396 S   0  0  0  0  0  0  0  0  0  0  0  0
   60.7104  153.9685  -44.1893 S   0  0  0  0  0  0  0  0  0  0  0  0
   72.9400  149.1526  -49.3368 F   0  0  0  0  0  0  0  0  0  0  0  0
   63.6473  155.3939  -49.6048 H   0  0  0  0  0  0  0  0  0  0  0  0
   67.9347  151.3115  -47.8883 H   0  0  0  0  0  0  0  0  0  0  0  0
   67.0235  154.0648  -52.7622 H   0  0  0  0  0  0  0  0  0  0  0  0
   68.2735  153.0621  -52.0496 H   0  0  0  0  0  0  0  0  0  0  0  0
   61.4694  152.1244  -43.2102 H   0  0  0  0  0  0  0  0  0  0  0  0
   61.3161  153.4753  -42.1295 H   0  0  0  0  0  0  0  0  0  0  0  0
   62.5372  156.4891  -47.8860 H   0  0  0  0  0  0  0  0  0  0  0  0
   61.1736  156.2428  -45.8367 H   0  0  0  0  0  0  0  0  0  0  0  0
   62.5673  152.2234  -45.4226 H   0  0  0  0  0  0  0  0  0  0  0  0
   63.9075  152.4631  -47.4649 H   0  0  0  0  0  0  0  0  0  0  0  0
   68.5220  149.5722  -46.6738 H   0  0  0  0  0  0  0  0  0  0  0  0
   70.1297  147.8129  -46.1175 H   0  0  0  0  0  0  0  0  0  0  0  0
   72.2150  147.5855  -47.4185 H   0  0  0  0  0  0  0  0  0  0  0  0
   71.0814  150.9149  -49.8570 H   0  0  0  0  0  0  0  0  0  0  0  0
  1  8  2  0
  2  9  1  0
  2 28  1  0
  3 16  1  0
  3 29  1  0
  4  7  1  0
  4 30  1  0
  4 31  1  0
  5 32  1  0
  5 33  1  0
  6 25  1  0
  7  1  1  0
  7  6  2  0
  8  2  1  0
  8 25  1  0
  9 11  2  0
  9 15  1  0
 10  6  1  0
 10  3  1  0
 11 12  1  0
 11 34  1  0
 12 13  2  0
 12 35  1  0
 13 26  1  0
 14 13  1  0
 14 36  1  0
 15 14  2  0
 15 37  1  0
 16 17  2  0
 17 18  1  0
 17 38  1  0
 18 39  1  0
 19 18  2  0
 19 40  1  0
 20 19  1  0
 21 20  2  0
 21 16  1  0
 21 41  1  0
 22 10  2  0
 23 26  2  0
 26 24  2  0
 26  5  1  0
 27 20  1  0
M  END
>  <lm5_entropy_jk>  (1) 
21.052089499889224

>  <number_of_rotatable_bonds>  (1) 
6

>  <IC50_NM>  (1) 
71000

>  <charge>  (1) 
0

$$$$
