3R9D
     RDKit          3D

 41 43  0  0  0  0  0  0  0  0999 V2000
   65.7029  154.3445  -50.5751 N   0  0  0  0  0  0  0  0  0  0  0  0
   64.0995  154.7541  -48.9425 N   0  0  0  0  0  0  0  0  0  0  0  0
   68.7148  151.3556  -48.5208 N   0  0  0  0  0  0  0  0  0  0  0  0
   67.4885  153.6913  -51.9443 N   0  0  0  0  0  0  0  0  0  0  0  0
   61.5025  153.1428  -43.0551 N   0  0  0  0  0  0  0  0  0  0  0  0
   67.3524  152.9616  -49.6528 C   0  0  0  0  0  0  0  0  0  0  0  0
   66.8770  153.6497  -50.7598 C   0  0  0  0  0  0  0  0  0  0  0  0
   65.2319  154.1577  -49.3655 C   0  0  0  0  0  0  0  0  0  0  0  0
   63.3863  154.5397  -47.7550 C   0  0  0  0  0  0  0  0  0  0  0  0
   68.5400  152.1472  -49.6404 C   0  0  0  0  0  0  0  0  0  0  0  0
   62.5963  155.5922  -47.2942 C   0  0  0  0  0  0  0  0  0  0  0  0
   61.8261  155.4489  -46.1579 C   0  0  0  0  0  0  0  0  0  0  0  0
   61.8638  154.2482  -45.4703 C   0  0  0  0  0  0  0  0  0  0  0  0
   62.6186  153.1759  -45.9302 C   0  0  0  0  0  0  0  0  0  0  0  0
   63.3829  153.3209  -47.0712 C   0  0  0  0  0  0  0  0  0  0  0  0
   69.6997  150.3857  -48.2797 C   0  0  0  0  0  0  0  0  0  0  0  0
   69.4554  149.5047  -47.2216 C   0  0  0  0  0  0  0  0  0  0  0  0
   70.3623  148.5210  -46.8989 C   0  0  0  0  0  0  0  0  0  0  0  0
   71.5408  148.4000  -47.6210 C   0  0  0  0  0  0  0  0  0  0  0  0
   71.7575  149.2826  -48.6483 C   0  0  0  0  0  0  0  0  0  0  0  0
   70.8797  150.2786  -49.0173 C   0  0  0  0  0  0  0  0  0  0  0  0
   69.3509  152.1583  -50.5636 O   0  0  0  0  0  0  0  0  0  0  0  0
   59.6648  153.1570  -44.7593 O   0  0  0  0  0  0  0  0  0  0  0  0
   60.2997  155.2323  -43.6042 O   0  0  0  0  0  0  0  0  0  0  0  0
   66.2286  153.1583  -48.3364 S   0  0  0  0  0  0  0  0  0  0  0  0
   60.7125  153.9699  -44.1835 S   0  0  0  0  0  0  0  0  0  0  0  0
   72.9428  149.1595  -49.3380 F   0  0  0  0  0  0  0  0  0  0  0  0
   63.6494  155.3999  -49.5973 H   0  0  0  0  0  0  0  0  0  0  0  0
   67.9326  151.3080  -47.8908 H   0  0  0  0  0  0  0  0  0  0  0  0
   67.0270  154.0763  -52.7567 H   0  0  0  0  0  0  0  0  0  0  0  0
   68.2763  153.0718  -52.0457 H   0  0  0  0  0  0  0  0  0  0  0  0
   61.4730  152.1245  -43.2059 H   0  0  0  0  0  0  0  0  0  0  0  0
   61.3174  153.4719  -42.1230 H   0  0  0  0  0  0  0  0  0  0  0  0
   62.5379  156.4922  -47.8800 H   0  0  0  0  0  0  0  0  0  0  0  0
   61.1740  156.2433  -45.8302 H   0  0  0  0  0  0  0  0  0  0  0  0
   62.5716  152.2252  -45.4181 H   0  0  0  0  0  0  0  0  0  0  0  0
   63.9094  152.4674  -47.4614 H   0  0  0  0  0  0  0  0  0  0  0  0
   68.5206  149.5651  -46.6796 H   0  0  0  0  0  0  0  0  0  0  0  0
   70.1293  147.8068  -46.1269 H   0  0  0  0  0  0  0  0  0  0  0  0
   72.2178  147.5868  -47.4246 H   0  0  0  0  0  0  0  0  0  0  0  0
   71.0830  150.9224  -49.8543 H   0  0  0  0  0  0  0  0  0  0  0  0
  1  8  2  0
  2  9  1  0
  2 28  1  0
  3 16  1  0
  3 29  1  0
  4  7  1  0
  4 30  1  0
  4 31  1  0
  5 32  1  0
  5 33  1  0
  6 25  1  0
  7  1  1  0
  7  6  2  0
  8  2  1  0
  8 25  1  0
  9 11  2  0
  9 15  1  0
 10  6  1  0
 10  3  1  0
 11 12  1  0
 11 34  1  0
 12 13  2  0
 12 35  1  0
 13 26  1  0
 14 13  1  0
 14 36  1  0
 15 14  2  0
 15 37  1  0
 16 17  2  0
 17 18  1  0
 17 38  1  0
 18 39  1  0
 19 18  2  0
 19 40  1  0
 20 19  1  0
 21 20  2  0
 21 16  1  0
 21 41  1  0
 22 10  2  0
 23 26  2  0
 26 24  2  0
 26  5  1  0
 27 20  1  0
M  END
>  <lm5_entropy_jk>  (1) 
21.052089499889224

>  <number_of_rotatable_bonds>  (1) 
6

>  <IC50_NM>  (1) 
71000

>  <charge>  (1) 
0

$$$$
