3S0O
     RDKit          3D

 30 31  0  0  1  0  0  0  0  0999 V2000
   65.7211  154.5971  -50.2970 N   0  0  0  0  0  0  0  0  0  0  0  0
   67.3291  153.5391  -51.6165 N   0  0  0  0  0  0  0  0  0  0  0  0
   67.8682  151.6427  -46.7426 N   0  0  0  0  0  0  0  0  0  0  0  0
   64.3238  155.4525  -48.6298 N   0  0  0  0  0  0  0  0  0  0  0  0
   66.7396  153.6918  -50.4206 C   0  0  0  0  0  0  0  0  0  0  0  0
   67.0812  152.9896  -49.2612 C   0  0  0  0  0  0  0  0  0  0  0  0
   68.1479  152.0454  -49.1327 C   0  0  0  0  0  0  0  0  0  0  0  0
   68.2299  151.1395  -47.9192 C   0  0  0  0  0  0  0  0  0  0  0  0
   67.9377  150.8418  -45.6800 C   0  0  0  0  0  0  0  0  0  0  0  0
   68.4213  149.5434  -45.7313 C   0  0  0  0  0  0  0  0  0  0  0  0
   68.8287  149.0379  -46.9554 C   0  0  0  0  0  0  0  0  0  0  0  0
   68.7332  149.8498  -48.0746 C   0  0  0  0  0  0  0  0  0  0  0  0
   65.2350  154.5451  -49.0799 C   0  0  0  0  0  0  0  0  0  0  0  0
   63.7106  155.3355  -47.3121 C   0  0  0  0  0  0  0  0  0  0  0  0
   62.7872  154.1610  -47.1142 C   0  0  0  0  0  0  0  0  0  0  0  0
   62.5996  153.5849  -45.9383 C   0  0  0  0  0  0  0  0  0  0  0  0
   69.0322  151.9321  -49.9857 O   0  0  0  0  0  0  0  0  0  0  0  0
   65.9063  153.3704  -48.0182 S   0  0  0  0  0  0  0  0  0  0  0  0
   67.0326  154.0881  -52.4187 H   0  0  0  0  0  0  0  0  0  0  0  0
   68.1265  152.9362  -51.6922 H   0  0  0  0  0  0  0  0  0  0  0  0
   67.6198  151.2709  -44.7399 H   0  0  0  0  0  0  0  0  0  0  0  0
   68.4443  148.9337  -44.8381 H   0  0  0  0  0  0  0  0  0  0  0  0
   69.1894  148.0190  -47.0287 H   0  0  0  0  0  0  0  0  0  0  0  0
   69.0098  149.4900  -49.0511 H   0  0  0  0  0  0  0  0  0  0  0  0
   63.6566  155.7221  -49.3515 H   0  0  0  0  0  0  0  0  0  0  0  0
   63.1627  156.2648  -47.1755 H   0  0  0  0  0  0  0  0  0  0  0  0
   64.4861  155.3134  -46.5458 H   0  0  0  0  0  0  0  0  0  0  0  0
   62.2400  153.8079  -47.9838 H   0  0  0  0  0  0  0  0  0  0  0  0
   63.1181  153.9159  -45.0457 H   0  0  0  0  0  0  0  0  0  0  0  0
   61.9215  152.7530  -45.8210 H   0  0  0  0  0  0  0  0  0  0  0  0
  1  5  1  0
  1 13  2  0
  2  5  1  0
  2 19  1  0
  2 20  1  0
  3  8  2  0
  3  9  1  0
  4 13  1  0
  4 14  1  0
  4 25  1  0
  5  6  2  0
  6 18  1  0
  7  6  1  0
  7  8  1  0
  7 17  2  0
  8 12  1  0
  9 10  2  0
  9 21  1  0
 10 11  1  0
 10 22  1  0
 11 12  2  0
 11 23  1  0
 12 24  1  0
 13 18  1  0
 14 15  1  0
 14 26  1  0
 14 27  1  0
 15 16  2  0
 15 28  1  0
 16 29  1  0
 16 30  1  0
M  END
>  <lm5_entropy_jk>  (1) 
21.884956070842478

>  <number_of_rotatable_bonds>  (1) 
5

>  <IC50_NM>  (1) 
33000

>  <charge>  (1) 
0

$$$$
