3RPY
     RDKit          3D

 31 32  0  0  0  0  0  0  0  0999 V2000
   68.6667  152.1456  -49.7305 C   0  0  0  0  0  0  0  0  0  0  0  0
   65.8131  154.3200  -50.6494 N   0  0  0  0  0  0  0  0  0  0  0  0
   59.8000  153.0291  -44.6940 O   0  0  0  0  0  0  0  0  0  0  0  0
   66.3420  153.1092  -48.4216 S   0  0  0  0  0  0  0  0  0  0  0  0
   67.6089  153.6822  -52.0181 N   0  0  0  0  0  0  0  0  0  0  0  0
   60.4548  155.1891  -43.7125 O   0  0  0  0  0  0  0  0  0  0  0  0
   60.8522  153.8955  -44.2227 S   0  0  0  0  0  0  0  0  0  0  0  0
   64.1889  154.6871  -49.0348 N   0  0  0  0  0  0  0  0  0  0  0  0
   61.6203  153.0730  -43.0854 N   0  0  0  0  0  0  0  0  0  0  0  0
   67.4625  152.9307  -49.7391 C   0  0  0  0  0  0  0  0  0  0  0  0
   66.9915  153.6335  -50.8393 C   0  0  0  0  0  0  0  0  0  0  0  0
   65.3413  154.1129  -49.4437 C   0  0  0  0  0  0  0  0  0  0  0  0
   63.4538  154.4572  -47.8679 C   0  0  0  0  0  0  0  0  0  0  0  0
   63.4370  153.2307  -47.1993 C   0  0  0  0  0  0  0  0  0  0  0  0
   62.6837  153.0851  -46.0504 C   0  0  0  0  0  0  0  0  0  0  0  0
   61.9379  154.1569  -45.5763 C   0  0  0  0  0  0  0  0  0  0  0  0
   61.9072  155.3630  -46.2541 C   0  0  0  0  0  0  0  0  0  0  0  0
   62.6688  155.5089  -47.3953 C   0  0  0  0  0  0  0  0  0  0  0  0
   69.4408  152.1254  -50.6892 O   0  0  0  0  0  0  0  0  0  0  0  0
   68.9658  151.4320  -48.5930 N   0  0  0  0  0  0  0  0  0  0  0  0
   67.1784  154.1260  -52.8164 H   0  0  0  0  0  0  0  0  0  0  0  0
   68.4273  153.0992  -52.1028 H   0  0  0  0  0  0  0  0  0  0  0  0
   63.7589  155.3544  -49.6811 H   0  0  0  0  0  0  0  0  0  0  0  0
   61.7010  152.0651  -43.2953 H   0  0  0  0  0  0  0  0  0  0  0  0
   62.4331  153.5089  -42.6783 H   0  0  0  0  0  0  0  0  0  0  0  0
   63.9668  152.3817  -47.5943 H   0  0  0  0  0  0  0  0  0  0  0  0
   62.6500  152.1377  -45.5312 H   0  0  0  0  0  0  0  0  0  0  0  0
   61.2721  156.1638  -45.9112 H   0  0  0  0  0  0  0  0  0  0  0  0
   62.6220  156.4180  -47.9665 H   0  0  0  0  0  0  0  0  0  0  0  0
   69.7192  150.7749  -48.6980 H   0  0  0  0  0  0  0  0  0  0  0  0
   68.2371  151.1898  -47.9464 H   0  0  0  0  0  0  0  0  0  0  0  0
  1 10  1  0
  1 20  1  0
  2 12  2  0
  3  7  2  0
  5 11  1  0
  5 21  1  0
  5 22  1  0
  7  6  2  0
  7  9  1  0
  8 13  1  0
  8 23  1  0
  9 24  1  0
  9 25  1  0
 10  4  1  0
 11  2  1  0
 11 10  2  0
 12  8  1  0
 12  4  1  0
 13 18  1  0
 13 14  2  0
 14 15  1  0
 14 26  1  0
 15 16  2  0
 15 27  1  0
 16  7  1  0
 17 16  1  0
 17 28  1  0
 18 17  2  0
 18 29  1  0
 19  1  2  0
 20 30  1  0
 20 31  1  0
M  END
>  <lm5_entropy_jk>  (1) 
19.643205717801273

>  <number_of_rotatable_bonds>  (1) 
4

>  <IC50_NM>  (1) 
4800

>  <charge>  (1) 
0

$$$$
