3RJC
     RDKit          3D

 34 36  0  0  0  0  0  0  0  0999 V2000
   65.7455  154.3837  -50.2452 N   0  0  0  0  0  0  0  0  0  0  0  0
   66.8147  153.5969  -50.5884 C   0  0  0  0  0  0  0  0  0  0  0  0
   67.2798  153.5913  -51.8381 N   0  0  0  0  0  0  0  0  0  0  0  0
   67.3246  152.7832  -49.5741 C   0  0  0  0  0  0  0  0  0  0  0  0
   68.3729  151.8240  -49.7344 C   0  0  0  0  0  0  0  0  0  0  0  0
   68.5758  150.7727  -48.6820 C   0  0  0  0  0  0  0  0  0  0  0  0
   67.4866  150.0704  -48.1711 C   0  0  0  0  0  0  0  0  0  0  0  0
   67.6680  149.0648  -47.2356 C   0  0  0  0  0  0  0  0  0  0  0  0
   68.9509  148.7571  -46.8048 C   0  0  0  0  0  0  0  0  0  0  0  0
   70.0360  149.4438  -47.3240 C   0  0  0  0  0  0  0  0  0  0  0  0
   69.8582  150.4398  -48.2702 C   0  0  0  0  0  0  0  0  0  0  0  0
   69.0877  151.8315  -50.7393 O   0  0  0  0  0  0  0  0  0  0  0  0
   66.3850  153.0260  -48.1321 S   0  0  0  0  0  0  0  0  0  0  0  0
   65.4002  154.1638  -48.9895 C   0  0  0  0  0  0  0  0  0  0  0  0
   64.3712  154.8202  -48.4130 N   0  0  0  0  0  0  0  0  0  0  0  0
   63.6257  154.4563  -47.2767 C   0  0  0  0  0  0  0  0  0  0  0  0
   62.7979  155.4385  -46.7267 C   0  0  0  0  0  0  0  0  0  0  0  0
   61.9979  155.1073  -45.6554 C   0  0  0  0  0  0  0  0  0  0  0  0
   61.9687  153.8493  -45.0921 C   0  0  0  0  0  0  0  0  0  0  0  0
   62.7909  152.8881  -45.6499 C   0  0  0  0  0  0  0  0  0  0  0  0
   63.6150  153.1738  -46.7286 C   0  0  0  0  0  0  0  0  0  0  0  0
   61.1942  156.0624  -45.1311 F   0  0  0  0  0  0  0  0  0  0  0  0
   66.9218  154.2007  -52.5592 H   0  0  0  0  0  0  0  0  0  0  0  0
   68.1048  153.0279  -51.9824 H   0  0  0  0  0  0  0  0  0  0  0  0
   66.4927  150.2924  -48.5245 H   0  0  0  0  0  0  0  0  0  0  0  0
   66.8164  148.5247  -46.8507 H   0  0  0  0  0  0  0  0  0  0  0  0
   69.0961  147.9613  -46.0868 H   0  0  0  0  0  0  0  0  0  0  0  0
   71.0342  149.1630  -47.0279 H   0  0  0  0  0  0  0  0  0  0  0  0
   70.7062  150.9519  -48.6974 H   0  0  0  0  0  0  0  0  0  0  0  0
   63.8794  155.4580  -49.0332 H   0  0  0  0  0  0  0  0  0  0  0  0
   62.7448  156.4295  -47.1478 H   0  0  0  0  0  0  0  0  0  0  0  0
   61.3237  153.6313  -44.2559 H   0  0  0  0  0  0  0  0  0  0  0  0
   62.7645  151.8912  -45.2420 H   0  0  0  0  0  0  0  0  0  0  0  0
   64.2057  152.3861  -47.1568 H   0  0  0  0  0  0  0  0  0  0  0  0
  1 14  2  0
  2  1  1  0
  2  4  2  0
  3  2  1  0
  3 23  1  0
  3 24  1  0
  4 13  1  0
  5  4  1  0
  5  6  1  0
  6 11  1  0
  6  7  2  0
  7  8  1  0
  7 25  1  0
  8  9  2  0
  8 26  1  0
  9 27  1  0
 10  9  1  0
 10 28  1  0
 11 10  2  0
 11 29  1  0
 12  5  2  0
 14 15  1  0
 14 13  1  0
 15 16  1  0
 15 30  1  0
 16 17  2  0
 16 21  1  0
 17 18  1  0
 17 31  1  0
 18 22  1  0
 18 19  2  0
 19 32  1  0
 20 19  1  0
 20 33  1  0
 21 20  2  0
 21 34  1  0
M  END
>  <lm5_entropy_jk>  (1) 
20.581653483104166

>  <number_of_rotatable_bonds>  (1) 
4

>  <IC50_NM>  (1) 
5700

>  <charge>  (1) 
0

$$$$
