3QU0
     RDKit          3D

 38 40  0  0  0  0  0  0  0  0999 V2000
   65.7680  154.2901  -50.5830 N   0  0  0  0  0  0  0  0  0  0  0  0
   64.2016  154.6877  -48.9250 N   0  0  0  0  0  0  0  0  0  0  0  0
   70.6091  149.8154  -47.5832 N   0  0  0  0  0  0  0  0  0  0  0  0
   67.5083  153.6357  -51.9982 N   0  0  0  0  0  0  0  0  0  0  0  0
   61.4921  153.1711  -43.0503 N   0  0  0  0  0  0  0  0  0  0  0  0
   67.3956  152.8368  -49.7249 C   0  0  0  0  0  0  0  0  0  0  0  0
   66.9181  153.5811  -50.8079 C   0  0  0  0  0  0  0  0  0  0  0  0
   65.3145  154.0732  -49.3675 C   0  0  0  0  0  0  0  0  0  0  0  0
   63.4877  154.4892  -47.7388 C   0  0  0  0  0  0  0  0  0  0  0  0
   68.5947  152.0673  -49.7649 C   0  0  0  0  0  0  0  0  0  0  0  0
   68.9031  151.0238  -48.7306 C   0  0  0  0  0  0  0  0  0  0  0  0
   67.9323  150.2065  -48.1622 C   0  0  0  0  0  0  0  0  0  0  0  0
   68.3178  149.1863  -47.3137 C   0  0  0  0  0  0  0  0  0  0  0  0
   69.6695  149.0237  -47.0627 C   0  0  0  0  0  0  0  0  0  0  0  0
   70.2306  150.7799  -48.4191 C   0  0  0  0  0  0  0  0  0  0  0  0
   63.4921  153.2912  -47.0187 C   0  0  0  0  0  0  0  0  0  0  0  0
   62.7073  153.1698  -45.8876 C   0  0  0  0  0  0  0  0  0  0  0  0
   61.9305  154.2443  -45.4708 C   0  0  0  0  0  0  0  0  0  0  0  0
   61.8903  155.4245  -46.1936 C   0  0  0  0  0  0  0  0  0  0  0  0
   62.6757  155.5438  -47.3209 C   0  0  0  0  0  0  0  0  0  0  0  0
   69.4156  152.2213  -50.6742 O   0  0  0  0  0  0  0  0  0  0  0  0
   59.7114  153.1671  -44.8099 O   0  0  0  0  0  0  0  0  0  0  0  0
   60.3139  155.2591  -43.6651 O   0  0  0  0  0  0  0  0  0  0  0  0
   66.2907  153.0202  -48.3863 S   0  0  0  0  0  0  0  0  0  0  0  0
   60.7399  153.9879  -44.2143 S   0  0  0  0  0  0  0  0  0  0  0  0
   63.7591  155.3404  -49.5787 H   0  0  0  0  0  0  0  0  0  0  0  0
   67.0815  154.0999  -52.7877 H   0  0  0  0  0  0  0  0  0  0  0  0
   68.3372  153.0733  -52.1050 H   0  0  0  0  0  0  0  0  0  0  0  0
   61.4210  152.1529  -43.1757 H   0  0  0  0  0  0  0  0  0  0  0  0
   61.2909  153.5266  -42.1313 H   0  0  0  0  0  0  0  0  0  0  0  0
   66.8884  150.3314  -48.4115 H   0  0  0  0  0  0  0  0  0  0  0  0
   67.5937  148.5128  -46.8852 H   0  0  0  0  0  0  0  0  0  0  0  0
   70.0110  148.2160  -46.4286 H   0  0  0  0  0  0  0  0  0  0  0  0
   71.0033  151.3860  -48.8719 H   0  0  0  0  0  0  0  0  0  0  0  0
   64.0367  152.4339  -47.3746 H   0  0  0  0  0  0  0  0  0  0  0  0
   62.6550  152.2315  -45.3536 H   0  0  0  0  0  0  0  0  0  0  0  0
   61.2211  156.2201  -45.9049 H   0  0  0  0  0  0  0  0  0  0  0  0
   62.6111  156.4222  -47.9383 H   0  0  0  0  0  0  0  0  0  0  0  0
  1  8  2  0
  2  9  1  0
  2 26  1  0
  3 14  2  0
  4  7  1  0
  4 27  1  0
  4 28  1  0
  5 29  1  0
  5 30  1  0
  6 24  1  0
  7  1  1  0
  7  6  2  0
  8  2  1  0
  8 24  1  0
  9 20  1  0
  9 16  2  0
 10  6  1  0
 10 11  1  0
 11 15  2  0
 11 12  1  0
 12 13  2  0
 12 31  1  0
 13 14  1  0
 13 32  1  0
 14 33  1  0
 15  3  1  0
 15 34  1  0
 16 17  1  0
 16 35  1  0
 17 18  2  0
 17 36  1  0
 18 25  1  0
 19 18  1  0
 19 37  1  0
 20 19  2  0
 20 38  1  0
 21 10  2  0
 22 25  2  0
 25 23  2  0
 25  5  1  0
M  END
>  <lm5_entropy_jk>  (1) 
22.397995528352578

>  <number_of_rotatable_bonds>  (1) 
5

>  <IC50_NM>  (1) 
20

>  <charge>  (1) 
0

$$$$
