3RAK
     RDKit          3D

 39 41  0  0  1  0  0  0  0  0999 V2000
   65.9856  154.3258  -50.4271 N   0  0  0  0  0  0  0  0  0  0  0  0
   67.5481  153.5385  -52.0101 N   0  0  0  0  0  0  0  0  0  0  0  0
   64.5995  154.8018  -48.6044 N   0  0  0  0  0  0  0  0  0  0  0  0
   62.0913  152.8468  -42.7929 N   0  0  0  0  0  0  0  0  0  0  0  0
   69.0534  148.9630  -46.5801 C   0  0  0  0  0  0  0  0  0  0  0  0
   70.1520  149.6477  -47.0809 C   0  0  0  0  0  0  0  0  0  0  0  0
   70.0012  150.5442  -48.1315 C   0  0  0  0  0  0  0  0  0  0  0  0
   67.6487  150.0590  -48.1885 C   0  0  0  0  0  0  0  0  0  0  0  0
   67.8014  149.1702  -47.1380 C   0  0  0  0  0  0  0  0  0  0  0  0
   68.7438  150.7645  -48.6844 C   0  0  0  0  0  0  0  0  0  0  0  0
   68.5788  151.7264  -49.8398 C   0  0  0  0  0  0  0  0  0  0  0  0
   67.5659  152.7365  -49.7405 C   0  0  0  0  0  0  0  0  0  0  0  0
   67.0520  153.5274  -50.7642 C   0  0  0  0  0  0  0  0  0  0  0  0
   65.6378  154.1113  -49.1792 C   0  0  0  0  0  0  0  0  0  0  0  0
   63.8830  154.5101  -47.4199 C   0  0  0  0  0  0  0  0  0  0  0  0
   64.0293  153.3539  -46.6528 C   0  0  0  0  0  0  0  0  0  0  0  0
   63.2709  153.1706  -45.5046 C   0  0  0  0  0  0  0  0  0  0  0  0
   62.3369  154.1158  -45.1120 C   0  0  0  0  0  0  0  0  0  0  0  0
   62.1715  155.2636  -45.8738 C   0  0  0  0  0  0  0  0  0  0  0  0
   62.9398  155.4556  -47.0051 C   0  0  0  0  0  0  0  0  0  0  0  0
   60.1148  153.0208  -44.3837 O   0  0  0  0  0  0  0  0  0  0  0  0
   60.8627  154.9569  -43.0580 O   0  0  0  0  0  0  0  0  0  0  0  0
   69.3072  151.6296  -50.8249 O   0  0  0  0  0  0  0  0  0  0  0  0
   66.6301  153.0114  -48.3025 S   0  0  0  0  0  0  0  0  0  0  0  0
   61.1974  153.7657  -43.7981 S   0  0  0  0  0  0  0  0  0  0  0  0
   69.1612  148.2471  -45.7742 H   0  0  0  0  0  0  0  0  0  0  0  0
   71.1230  149.4583  -46.6523 H   0  0  0  0  0  0  0  0  0  0  0  0
   67.1381  154.1055  -52.7471 H   0  0  0  0  0  0  0  0  0  0  0  0
   68.3175  152.9290  -52.2256 H   0  0  0  0  0  0  0  0  0  0  0  0
   70.8481  151.0821  -48.5299 H   0  0  0  0  0  0  0  0  0  0  0  0
   64.0336  155.3074  -49.2851 H   0  0  0  0  0  0  0  0  0  0  0  0
   66.6730  150.1823  -48.6353 H   0  0  0  0  0  0  0  0  0  0  0  0
   62.0927  151.8530  -43.0801 H   0  0  0  0  0  0  0  0  0  0  0  0
   61.8609  152.9919  -41.8271 H   0  0  0  0  0  0  0  0  0  0  0  0
   66.9417  148.6338  -46.7578 H   0  0  0  0  0  0  0  0  0  0  0  0
   64.6942  152.5630  -46.9490 H   0  0  0  0  0  0  0  0  0  0  0  0
   63.4149  152.2636  -44.9318 H   0  0  0  0  0  0  0  0  0  0  0  0
   61.4305  155.9947  -45.5882 H   0  0  0  0  0  0  0  0  0  0  0  0
   62.7717  156.3315  -47.6130 H   0  0  0  0  0  0  0  0  0  0  0  0
  1 13  1  0
  1 14  2  0
  2 13  1  0
  2 28  1  0
  2 29  1  0
  3 14  1  0
  3 15  1  0
  3 31  1  0
  4 25  1  0
  4 33  1  0
  4 34  1  0
  5  6  2  0
  5  9  1  0
  5 26  1  0
  6  7  1  0
  6 27  1  0
  7 10  2  0
  7 30  1  0
  8  9  2  0
  8 10  1  0
  8 32  1  0
  9 35  1  0
 11 10  1  0
 11 12  1  0
 11 23  2  0
 12 13  2  0
 12 24  1  0
 14 24  1  0
 15 16  2  0
 15 20  1  0
 16 17  1  0
 16 36  1  0
 17 18  2  0
 17 37  1  0
 18 19  1  0
 18 25  1  0
 19 20  2  0
 19 38  1  0
 20 39  1  0
 21 25  2  0
 22 25  2  0
M  END
>  <lm5_entropy_jk>  (1) 
22.952794734129974

>  <number_of_rotatable_bonds>  (1) 
5

>  <IC50_NM>  (1) 
130

>  <charge>  (1) 
0

$$$$
