3SQQ
     RDKit          3D

 42 44  0  0  0  0  0  0  0  0999 V2000
   65.5049  154.2104  -50.5319 N   0  0  0  0  0  0  0  0  0  0  0  0
   64.1245  154.8128  -48.7837 N   0  0  0  0  0  0  0  0  0  0  0  0
   66.9687  153.2759  -52.0739 N   0  0  0  0  0  0  0  0  0  0  0  0
   61.2746  153.2415  -42.9362 N   0  0  0  0  0  0  0  0  0  0  0  0
   67.0753  152.6447  -49.7505 C   0  0  0  0  0  0  0  0  0  0  0  0
   66.5487  153.3756  -50.8238 C   0  0  0  0  0  0  0  0  0  0  0  0
   65.1622  154.0973  -49.2670 C   0  0  0  0  0  0  0  0  0  0  0  0
   63.3616  154.5951  -47.6297 C   0  0  0  0  0  0  0  0  0  0  0  0
   68.0200  151.5869  -49.9011 C   0  0  0  0  0  0  0  0  0  0  0  0
   68.3937  150.7516  -48.7146 C   0  0  0  0  0  0  0  0  0  0  0  0
   69.7336  150.4580  -48.4409 C   0  0  0  0  0  0  0  0  0  0  0  0
   70.0078  149.6414  -47.3479 C   0  0  0  0  0  0  0  0  0  0  0  0
   69.0010  149.0794  -46.5817 C   0  0  0  0  0  0  0  0  0  0  0  0
   67.6742  149.3371  -46.8844 C   0  0  0  0  0  0  0  0  0  0  0  0
   67.3837  150.1832  -47.9398 C   0  0  0  0  0  0  0  0  0  0  0  0
   63.3201  153.3729  -46.9587 C   0  0  0  0  0  0  0  0  0  0  0  0
   62.5002  153.2225  -45.8576 C   0  0  0  0  0  0  0  0  0  0  0  0
   61.7139  154.2839  -45.4309 C   0  0  0  0  0  0  0  0  0  0  0  0
   61.7317  155.4990  -46.1026 C   0  0  0  0  0  0  0  0  0  0  0  0
   62.5618  155.6506  -47.1936 C   0  0  0  0  0  0  0  0  0  0  0  0
   70.8760  150.9716  -49.2739 C   0  0  0  0  0  0  0  0  0  0  0  0
   68.5078  151.3183  -51.0099 O   0  0  0  0  0  0  0  0  0  0  0  0
   60.0729  155.2811  -43.6866 O   0  0  0  0  0  0  0  0  0  0  0  0
   59.5774  153.0605  -44.6742 O   0  0  0  0  0  0  0  0  0  0  0  0
   66.1558  153.0364  -48.3204 S   0  0  0  0  0  0  0  0  0  0  0  0
   60.5415  154.0002  -44.1543 S   0  0  0  0  0  0  0  0  0  0  0  0
   63.6870  155.4313  -49.4659 H   0  0  0  0  0  0  0  0  0  0  0  0
   66.6311  153.8811  -52.8083 H   0  0  0  0  0  0  0  0  0  0  0  0
   67.7084  152.6155  -52.2514 H   0  0  0  0  0  0  0  0  0  0  0  0
   61.4431  152.2519  -43.1400 H   0  0  0  0  0  0  0  0  0  0  0  0
   62.0554  153.7553  -42.5564 H   0  0  0  0  0  0  0  0  0  0  0  0
   71.0415  149.4012  -47.1429 H   0  0  0  0  0  0  0  0  0  0  0  0
   69.2527  148.4016  -45.7789 H   0  0  0  0  0  0  0  0  0  0  0  0
   66.8704  148.8664  -46.3397 H   0  0  0  0  0  0  0  0  0  0  0  0
   66.3521  150.3629  -48.2004 H   0  0  0  0  0  0  0  0  0  0  0  0
   63.8841  152.5275  -47.3131 H   0  0  0  0  0  0  0  0  0  0  0  0
   62.4380  152.2691  -45.3498 H   0  0  0  0  0  0  0  0  0  0  0  0
   61.0835  156.3021  -45.7903 H   0  0  0  0  0  0  0  0  0  0  0  0
   62.5692  156.5744  -47.7500 H   0  0  0  0  0  0  0  0  0  0  0  0
   70.6551  150.9071  -50.3335 H   0  0  0  0  0  0  0  0  0  0  0  0
   71.7655  150.3852  -49.0642 H   0  0  0  0  0  0  0  0  0  0  0  0
   71.0939  152.0184  -49.0547 H   0  0  0  0  0  0  0  0  0  0  0  0
  1  7  2  0
  2  8  1  0
  2 27  1  0
  3  6  1  0
  3 28  1  0
  3 29  1  0
  4 30  1  0
  4 31  1  0
  5 25  1  0
  6  1  1  0
  6  5  2  0
  7  2  1  0
  7 25  1  0
  8 20  1  0
  8 16  2  0
  9  5  1  0
  9 10  1  0
 10 11  2  0
 10 15  1  0
 11 12  1  0
 12 13  2  0
 12 32  1  0
 13 33  1  0
 14 13  1  0
 14 34  1  0
 15 14  2  0
 15 35  1  0
 16 17  1  0
 16 36  1  0
 17 18  2  0
 17 37  1  0
 18 26  1  0
 19 18  1  0
 19 38  1  0
 20 19  2  0
 20 39  1  0
 21 11  1  0
 21 40  1  0
 21 41  1  0
 21 42  1  0
 22  9  2  0
 24 26  2  0
 26 23  2  0
 26  4  1  0
M  END
>  <lm5_entropy_jk>  (1) 
31.418959509749985

>  <number_of_rotatable_bonds>  (1) 
5

>  <IC50_NM>  (1) 
4800

>  <charge>  (1) 
0

$$$$
