3SQQ
     RDKit          3D

 42 44  0  0  0  0  0  0  0  0999 V2000
   65.4839  154.2042  -50.5448 N   0  0  0  0  0  0  0  0  0  0  0  0
   64.0992  154.8068  -48.7989 N   0  0  0  0  0  0  0  0  0  0  0  0
   66.9505  153.2658  -52.0829 N   0  0  0  0  0  0  0  0  0  0  0  0
   61.2707  153.2362  -42.9408 N   0  0  0  0  0  0  0  0  0  0  0  0
   67.0603  152.6493  -49.7563 C   0  0  0  0  0  0  0  0  0  0  0  0
   66.5304  153.3719  -50.8334 C   0  0  0  0  0  0  0  0  0  0  0  0
   65.1412  154.0960  -49.2795 C   0  0  0  0  0  0  0  0  0  0  0  0
   63.3393  154.5883  -47.6430 C   0  0  0  0  0  0  0  0  0  0  0  0
   68.0062  151.5924  -49.9007 C   0  0  0  0  0  0  0  0  0  0  0  0
   68.3791  150.7633  -48.7092 C   0  0  0  0  0  0  0  0  0  0  0  0
   69.7187  150.4754  -48.4290 C   0  0  0  0  0  0  0  0  0  0  0  0
   69.9926  149.6614  -47.3337 C   0  0  0  0  0  0  0  0  0  0  0  0
   68.9848  149.0976  -46.5701 C   0  0  0  0  0  0  0  0  0  0  0  0
   67.6585  149.3514  -46.8777 C   0  0  0  0  0  0  0  0  0  0  0  0
   67.3688  150.1932  -47.9365 C   0  0  0  0  0  0  0  0  0  0  0  0
   63.3056  153.3673  -46.9692 C   0  0  0  0  0  0  0  0  0  0  0  0
   62.4898  153.2142  -45.8651 C   0  0  0  0  0  0  0  0  0  0  0  0
   61.6993  154.2730  -45.4394 C   0  0  0  0  0  0  0  0  0  0  0  0
   61.7096  155.4867  -46.1136 C   0  0  0  0  0  0  0  0  0  0  0  0
   62.5359  155.6409  -47.2068 C   0  0  0  0  0  0  0  0  0  0  0  0
   70.8613  150.9958  -49.2574 C   0  0  0  0  0  0  0  0  0  0  0  0
   68.4949  151.3183  -51.0079 O   0  0  0  0  0  0  0  0  0  0  0  0
   60.0621  155.2724  -43.6926 O   0  0  0  0  0  0  0  0  0  0  0  0
   59.5660  153.0474  -44.6726 O   0  0  0  0  0  0  0  0  0  0  0  0
   66.1403  153.0457  -48.3285 S   0  0  0  0  0  0  0  0  0  0  0  0
   60.5301  153.9908  -44.1582 S   0  0  0  0  0  0  0  0  0  0  0  0
   63.6608  155.4257  -49.4797 H   0  0  0  0  0  0  0  0  0  0  0  0
   66.6100  153.8637  -52.8221 H   0  0  0  0  0  0  0  0  0  0  0  0
   67.6915  152.6055  -52.2555 H   0  0  0  0  0  0  0  0  0  0  0  0
   61.4425  152.2470  -43.1437 H   0  0  0  0  0  0  0  0  0  0  0  0
   62.0510  153.7537  -42.5641 H   0  0  0  0  0  0  0  0  0  0  0  0
   71.0268  149.4253  -47.1244 H   0  0  0  0  0  0  0  0  0  0  0  0
   69.2358  148.4230  -45.7645 H   0  0  0  0  0  0  0  0  0  0  0  0
   66.8544  148.8803  -46.3342 H   0  0  0  0  0  0  0  0  0  0  0  0
   66.3379  150.3691  -48.2006 H   0  0  0  0  0  0  0  0  0  0  0  0
   63.8731  152.5245  -47.3237 H   0  0  0  0  0  0  0  0  0  0  0  0
   62.4345  152.2623  -45.3531 H   0  0  0  0  0  0  0  0  0  0  0  0
   61.0586  156.2864  -45.7985 H   0  0  0  0  0  0  0  0  0  0  0  0
   62.5371  156.5639  -47.7641 H   0  0  0  0  0  0  0  0  0  0  0  0
   70.6344  150.9539  -50.3168 H   0  0  0  0  0  0  0  0  0  0  0  0
   71.7477  150.3988  -49.0638 H   0  0  0  0  0  0  0  0  0  0  0  0
   71.0883  152.0365  -49.0171 H   0  0  0  0  0  0  0  0  0  0  0  0
  1  7  2  0
  2  8  1  0
  2 27  1  0
  3  6  1  0
  3 28  1  0
  3 29  1  0
  4 30  1  0
  4 31  1  0
  5 25  1  0
  6  1  1  0
  6  5  2  0
  7  2  1  0
  7 25  1  0
  8 20  2  0
  8 16  1  0
  9  5  1  0
  9 10  1  0
 10 11  1  0
 10 15  2  0
 11 12  2  0
 12 13  1  0
 12 32  1  0
 13 33  1  0
 14 13  2  0
 14 34  1  0
 15 14  1  0
 15 35  1  0
 16 17  2  0
 16 36  1  0
 17 18  1  0
 17 37  1  0
 18 26  1  0
 19 18  2  0
 19 38  1  0
 20 19  1  0
 20 39  1  0
 21 11  1  0
 21 40  1  0
 21 41  1  0
 21 42  1  0
 22  9  2  0
 24 26  2  0
 26 23  2  0
 26  4  1  0
M  END
>  <lm5_entropy_jk>  (1) 
31.418959509749985

>  <number_of_rotatable_bonds>  (1) 
5

>  <IC50_NM>  (1) 
4800

>  <charge>  (1) 
0

$$$$
