3RJC
     RDKit          3D

 34 36  0  0  0  0  0  0  0  0999 V2000
   65.8876  154.3153  -50.3261 N   0  0  0  0  0  0  0  0  0  0  0  0
   66.9736  153.5314  -50.6547 C   0  0  0  0  0  0  0  0  0  0  0  0
   67.4705  153.5496  -51.9017 N   0  0  0  0  0  0  0  0  0  0  0  0
   67.4893  152.7339  -49.6318 C   0  0  0  0  0  0  0  0  0  0  0  0
   68.5391  151.7542  -49.7212 C   0  0  0  0  0  0  0  0  0  0  0  0
   68.7073  150.7948  -48.5676 C   0  0  0  0  0  0  0  0  0  0  0  0
   67.6424  150.0015  -48.1518 C   0  0  0  0  0  0  0  0  0  0  0  0
   67.7938  149.1073  -47.1076 C   0  0  0  0  0  0  0  0  0  0  0  0
   69.0193  148.9838  -46.4758 C   0  0  0  0  0  0  0  0  0  0  0  0
   70.0881  149.7651  -46.8844 C   0  0  0  0  0  0  0  0  0  0  0  0
   69.9326  150.6709  -47.9243 C   0  0  0  0  0  0  0  0  0  0  0  0
   69.2983  151.6872  -50.6872 O   0  0  0  0  0  0  0  0  0  0  0  0
   66.4853  152.9436  -48.2258 S   0  0  0  0  0  0  0  0  0  0  0  0
   65.4911  154.0498  -49.0975 C   0  0  0  0  0  0  0  0  0  0  0  0
   64.4052  154.6574  -48.5255 N   0  0  0  0  0  0  0  0  0  0  0  0
   63.7259  154.3855  -47.3122 C   0  0  0  0  0  0  0  0  0  0  0  0
   62.8062  155.3401  -46.8644 C   0  0  0  0  0  0  0  0  0  0  0  0
   62.1605  155.1520  -45.6594 C   0  0  0  0  0  0  0  0  0  0  0  0
   62.3814  154.0515  -44.8551 C   0  0  0  0  0  0  0  0  0  0  0  0
   63.2648  153.1007  -45.3241 C   0  0  0  0  0  0  0  0  0  0  0  0
   63.9125  153.2432  -46.5426 C   0  0  0  0  0  0  0  0  0  0  0  0
   61.2941  156.0894  -45.2341 F   0  0  0  0  0  0  0  0  0  0  0  0
   67.0936  154.1338  -52.6456 H   0  0  0  0  0  0  0  0  0  0  0  0
   68.2756  152.9929  -52.1202 H   0  0  0  0  0  0  0  0  0  0  0  0
   66.6898  150.0635  -48.6509 H   0  0  0  0  0  0  0  0  0  0  0  0
   66.9543  148.5108  -46.7786 H   0  0  0  0  0  0  0  0  0  0  0  0
   69.1289  148.2684  -45.6732 H   0  0  0  0  0  0  0  0  0  0  0  0
   71.0319  149.6584  -46.3756 H   0  0  0  0  0  0  0  0  0  0  0  0
   70.7527  151.2969  -48.2313 H   0  0  0  0  0  0  0  0  0  0  0  0
   63.8463  155.2115  -49.1693 H   0  0  0  0  0  0  0  0  0  0  0  0
   62.5770  156.2140  -47.4504 H   0  0  0  0  0  0  0  0  0  0  0  0
   61.8843  153.9376  -43.9072 H   0  0  0  0  0  0  0  0  0  0  0  0
   63.4523  152.2167  -44.7297 H   0  0  0  0  0  0  0  0  0  0  0  0
   64.5416  152.4392  -46.8707 H   0  0  0  0  0  0  0  0  0  0  0  0
  1 14  2  0
  2  1  1  0
  2  4  2  0
  3  2  1  0
  3 23  1  0
  3 24  1  0
  4 13  1  0
  5  4  1  0
  5  6  1  0
  6 11  1  0
  6  7  2  0
  7  8  1  0
  7 25  1  0
  8  9  2  0
  8 26  1  0
  9 27  1  0
 10  9  1  0
 10 28  1  0
 11 10  2  0
 11 29  1  0
 12  5  2  0
 14 15  1  0
 14 13  1  0
 15 16  1  0
 15 30  1  0
 16 17  2  0
 16 21  1  0
 17 18  1  0
 17 31  1  0
 18 22  1  0
 18 19  2  0
 19 32  1  0
 20 19  1  0
 20 33  1  0
 21 20  2  0
 21 34  1  0
M  END
>  <lm5_entropy_jk>  (1) 
20.581653483104166

>  <number_of_rotatable_bonds>  (1) 
4

>  <IC50_NM>  (1) 
5700

>  <charge>  (1) 
0

$$$$
