3RNI
     RDKit          3D

 39 41  0  0  0  0  0  0  0  0999 V2000
   65.3919  154.3694  -50.3846 N   0  0  0  0  0  0  0  0  0  0  0  0
   63.8001  154.6214  -48.7135 N   0  0  0  0  0  0  0  0  0  0  0  0
   67.1454  153.8077  -51.8264 N   0  0  0  0  0  0  0  0  0  0  0  0
   60.5734  157.5368  -46.1042 N   0  0  0  0  0  0  0  0  0  0  0  0
   67.0997  152.9835  -49.5656 C   0  0  0  0  0  0  0  0  0  0  0  0
   66.5780  153.7264  -50.6277 C   0  0  0  0  0  0  0  0  0  0  0  0
   64.9550  154.0963  -49.1744 C   0  0  0  0  0  0  0  0  0  0  0  0
   68.3055  152.2199  -49.6606 C   0  0  0  0  0  0  0  0  0  0  0  0
   63.1429  154.3461  -47.5057 C   0  0  0  0  0  0  0  0  0  0  0  0
   68.6141  151.0868  -48.7263 C   0  0  0  0  0  0  0  0  0  0  0  0
   62.2878  155.3297  -47.0053 C   0  0  0  0  0  0  0  0  0  0  0  0
   61.6049  155.0920  -45.8260 C   0  0  0  0  0  0  0  0  0  0  0  0
   61.7405  153.9046  -45.1196 C   0  0  0  0  0  0  0  0  0  0  0  0
   62.5699  152.9306  -45.6375 C   0  0  0  0  0  0  0  0  0  0  0  0
   63.2550  153.1347  -46.8259 C   0  0  0  0  0  0  0  0  0  0  0  0
   67.6276  150.2837  -48.1580 C   0  0  0  0  0  0  0  0  0  0  0  0
   67.9740  149.1759  -47.3971 C   0  0  0  0  0  0  0  0  0  0  0  0
   69.3116  148.8664  -47.2036 C   0  0  0  0  0  0  0  0  0  0  0  0
   70.2977  149.6593  -47.7741 C   0  0  0  0  0  0  0  0  0  0  0  0
   69.9531  150.7583  -48.5409 C   0  0  0  0  0  0  0  0  0  0  0  0
   69.1216  152.4615  -50.5581 O   0  0  0  0  0  0  0  0  0  0  0  0
   59.1147  155.5795  -45.4530 O   0  0  0  0  0  0  0  0  0  0  0  0
   60.6761  156.5467  -43.8318 O   0  0  0  0  0  0  0  0  0  0  0  0
   65.9919  153.0820  -48.2228 S   0  0  0  0  0  0  0  0  0  0  0  0
   60.3940  156.1989  -45.2028 S   0  0  0  0  0  0  0  0  0  0  0  0
   63.3141  155.2521  -49.3567 H   0  0  0  0  0  0  0  0  0  0  0  0
   66.7159  154.2697  -52.6155 H   0  0  0  0  0  0  0  0  0  0  0  0
   68.0196  153.3219  -51.9379 H   0  0  0  0  0  0  0  0  0  0  0  0
   60.4572  158.3685  -45.5463 H   0  0  0  0  0  0  0  0  0  0  0  0
   59.9799  157.4803  -46.9305 H   0  0  0  0  0  0  0  0  0  0  0  0
   62.1495  156.2428  -47.5598 H   0  0  0  0  0  0  0  0  0  0  0  0
   61.1876  153.7309  -44.2089 H   0  0  0  0  0  0  0  0  0  0  0  0
   62.6444  151.9826  -45.1302 H   0  0  0  0  0  0  0  0  0  0  0  0
   63.8313  152.3286  -47.2424 H   0  0  0  0  0  0  0  0  0  0  0  0
   66.5837  150.4835  -48.3384 H   0  0  0  0  0  0  0  0  0  0  0  0
   67.2036  148.5470  -46.9792 H   0  0  0  0  0  0  0  0  0  0  0  0
   69.5682  147.9829  -46.6385 H   0  0  0  0  0  0  0  0  0  0  0  0
   71.3375  149.3866  -47.6742 H   0  0  0  0  0  0  0  0  0  0  0  0
   70.7075  151.3511  -49.0366 H   0  0  0  0  0  0  0  0  0  0  0  0
  1  7  2  0
  2  9  1  0
  2 26  1  0
  3  6  1  0
  3 27  1  0
  3 28  1  0
  4 25  1  0
  4 29  1  0
  4 30  1  0
  5 24  1  0
  6  1  1  0
  6  5  2  0
  7  2  1  0
  7 24  1  0
  8  5  1  0
  8 10  1  0
  9 11  2  0
  9 15  1  0
 10 20  1  0
 10 16  2  0
 11 12  1  0
 11 31  1  0
 12 25  1  0
 12 13  2  0
 13 32  1  0
 14 13  1  0
 14 33  1  0
 15 14  2  0
 15 34  1  0
 16 17  1  0
 16 35  1  0
 17 18  2  0
 17 36  1  0
 18 37  1  0
 19 18  1  0
 19 38  1  0
 20 19  2  0
 20 39  1  0
 21  8  2  0
 25 22  2  0
 25 23  2  0
M  END
>  <lm5_entropy_jk>  (1) 
22.397995528352578

>  <number_of_rotatable_bonds>  (1) 
5

>  <IC50_NM>  (1) 
6700

>  <charge>  (1) 
0

$$$$
