3RK5
     RDKit          3D

 35 37  0  0  1  0  0  0  0  0999 V2000
   64.3708  154.6952  -48.1992 N   0  0  0  0  0  0  0  0  0  0  0  0
   65.7365  154.3433  -49.9931 N   0  0  0  0  0  0  0  0  0  0  0  0
   67.2369  153.6952  -51.6671 N   0  0  0  0  0  0  0  0  0  0  0  0
   70.9688  150.0186  -47.6579 N   0  0  0  0  0  0  0  0  0  0  0  0
   63.6674  154.6174  -46.9855 C   0  0  0  0  0  0  0  0  0  0  0  0
   65.4007  154.0208  -48.7612 C   0  0  0  0  0  0  0  0  0  0  0  0
   66.8147  153.6187  -50.4022 C   0  0  0  0  0  0  0  0  0  0  0  0
   67.3955  152.7870  -49.4454 C   0  0  0  0  0  0  0  0  0  0  0  0
   68.5765  152.0228  -49.6781 C   0  0  0  0  0  0  0  0  0  0  0  0
   69.0386  150.9935  -48.6998 C   0  0  0  0  0  0  0  0  0  0  0  0
   68.1990  150.1020  -48.0498 C   0  0  0  0  0  0  0  0  0  0  0  0
   68.7673  149.1652  -47.2044 C   0  0  0  0  0  0  0  0  0  0  0  0
   70.1416  149.1615  -47.0412 C   0  0  0  0  0  0  0  0  0  0  0  0
   70.4044  150.8924  -48.4811 C   0  0  0  0  0  0  0  0  0  0  0  0
   62.8996  155.7429  -46.6687 C   0  0  0  0  0  0  0  0  0  0  0  0
   62.1050  155.7627  -45.5446 C   0  0  0  0  0  0  0  0  0  0  0  0
   62.0456  154.6794  -44.6724 C   0  0  0  0  0  0  0  0  0  0  0  0
   62.8344  153.5746  -44.9755 C   0  0  0  0  0  0  0  0  0  0  0  0
   63.6296  153.5260  -46.1246 C   0  0  0  0  0  0  0  0  0  0  0  0
   61.0824  154.7717  -43.4476 C   0  0  0  0  0  0  0  0  0  0  0  0
   69.2691  152.2196  -50.6806 O   0  0  0  0  0  0  0  0  0  0  0  0
   60.2549  155.7124  -43.5194 O   0  0  0  0  0  0  0  0  0  0  0  0
   61.2202  153.9338  -42.5488 O   0  0  0  0  0  0  0  0  0  0  0  0
   66.4114  152.8461  -47.9933 S   0  0  0  0  0  0  0  0  0  0  0  0
   63.9496  155.3256  -48.8598 H   0  0  0  0  0  0  0  0  0  0  0  0
   66.8502  154.3679  -52.3029 H   0  0  0  0  0  0  0  0  0  0  0  0
   68.1196  153.2400  -51.8484 H   0  0  0  0  0  0  0  0  0  0  0  0
   67.1285  150.1108  -48.2047 H   0  0  0  0  0  0  0  0  0  0  0  0
   68.1542  148.4344  -46.6906 H   0  0  0  0  0  0  0  0  0  0  0  0
   70.6074  148.4411  -46.3813 H   0  0  0  0  0  0  0  0  0  0  0  0
   71.0657  151.5665  -49.0081 H   0  0  0  0  0  0  0  0  0  0  0  0
   62.8932  156.5922  -47.3304 H   0  0  0  0  0  0  0  0  0  0  0  0
   61.4630  156.6000  -45.3006 H   0  0  0  0  0  0  0  0  0  0  0  0
   62.8003  152.7218  -44.3026 H   0  0  0  0  0  0  0  0  0  0  0  0
   64.1884  152.6270  -46.3364 H   0  0  0  0  0  0  0  0  0  0  0  0
  1  5  1  0
  1  6  1  0
  1 25  1  0
  2  6  2  0
  2  7  1  0
  3  7  1  0
  3 26  1  0
  3 27  1  0
  4 13  2  0
  4 14  1  0
  5 15  2  0
  5 19  1  0
  6 24  1  0
  7  8  2  0
  8 24  1  0
  9  8  1  0
  9 10  1  0
  9 21  2  0
 10 11  1  0
 10 14  2  0
 11 12  2  0
 11 28  1  0
 12 13  1  0
 12 29  1  0
 13 30  1  0
 14 31  1  0
 15 16  1  0
 15 32  1  0
 16 17  2  0
 16 33  1  0
 17 18  1  0
 17 20  1  0
 18 19  2  0
 18 34  1  0
 19 35  1  0
 20 22  2  0
 20 23  1  0
M  CHG  1  23  -1
M  END
>  <lm5_entropy_jk>  (1) 
20.582349174783765

>  <number_of_rotatable_bonds>  (1) 
5

>  <IC50_NM>  (1) 
4000

>  <charge>  (1) 
-1

$$$$
