3RAK
     RDKit          3D

 39 41  0  0  1  0  0  0  0  0999 V2000
   65.4927  154.3049  -50.7402 N   0  0  0  0  0  0  0  0  0  0  0  0
   67.2444  153.5956  -52.1099 N   0  0  0  0  0  0  0  0  0  0  0  0
   63.9062  154.7735  -49.1161 N   0  0  0  0  0  0  0  0  0  0  0  0
   61.2490  153.1282  -43.2229 N   0  0  0  0  0  0  0  0  0  0  0  0
   69.3684  149.1543  -46.8942 C   0  0  0  0  0  0  0  0  0  0  0  0
   70.3268  149.8324  -47.6325 C   0  0  0  0  0  0  0  0  0  0  0  0
   69.9449  150.7789  -48.5649 C   0  0  0  0  0  0  0  0  0  0  0  0
   67.6380  150.3898  -48.0050 C   0  0  0  0  0  0  0  0  0  0  0  0
   68.0222  149.4282  -47.0812 C   0  0  0  0  0  0  0  0  0  0  0  0
   68.5977  151.0709  -48.7492 C   0  0  0  0  0  0  0  0  0  0  0  0
   68.2479  152.0220  -49.8528 C   0  0  0  0  0  0  0  0  0  0  0  0
   67.0912  152.8573  -49.8168 C   0  0  0  0  0  0  0  0  0  0  0  0
   66.6424  153.5808  -50.9260 C   0  0  0  0  0  0  0  0  0  0  0  0
   65.0242  154.1371  -49.5261 C   0  0  0  0  0  0  0  0  0  0  0  0
   63.1520  154.5350  -47.9637 C   0  0  0  0  0  0  0  0  0  0  0  0
   63.0946  153.2827  -47.3449 C   0  0  0  0  0  0  0  0  0  0  0  0
   62.3048  153.1060  -46.2272 C   0  0  0  0  0  0  0  0  0  0  0  0
   61.5602  154.1705  -45.7330 C   0  0  0  0  0  0  0  0  0  0  0  0
   61.5836  155.4067  -46.3544 C   0  0  0  0  0  0  0  0  0  0  0  0
   62.3823  155.5859  -47.4669 C   0  0  0  0  0  0  0  0  0  0  0  0
   59.4893  152.8972  -44.8711 O   0  0  0  0  0  0  0  0  0  0  0  0
   59.9362  155.1355  -43.9503 O   0  0  0  0  0  0  0  0  0  0  0  0
   68.9984  152.0497  -50.8364 O   0  0  0  0  0  0  0  0  0  0  0  0
   65.9751  153.1116  -48.4961 S   0  0  0  0  0  0  0  0  0  0  0  0
   60.4493  153.8720  -44.4067 S   0  0  0  0  0  0  0  0  0  0  0  0
   69.6655  148.3797  -46.2020 H   0  0  0  0  0  0  0  0  0  0  0  0
   71.3717  149.5824  -47.5253 H   0  0  0  0  0  0  0  0  0  0  0  0
   66.8705  154.1163  -52.8903 H   0  0  0  0  0  0  0  0  0  0  0  0
   68.0850  153.0415  -52.1711 H   0  0  0  0  0  0  0  0  0  0  0  0
   70.6759  151.2815  -49.1805 H   0  0  0  0  0  0  0  0  0  0  0  0
   63.5303  155.4912  -49.7389 H   0  0  0  0  0  0  0  0  0  0  0  0
   66.5885  150.5634  -48.1786 H   0  0  0  0  0  0  0  0  0  0  0  0
   61.4096  152.1302  -43.4216 H   0  0  0  0  0  0  0  0  0  0  0  0
   62.0457  153.6234  -42.8525 H   0  0  0  0  0  0  0  0  0  0  0  0
   67.2694  148.8700  -46.5461 H   0  0  0  0  0  0  0  0  0  0  0  0
   63.6186  152.4398  -47.7598 H   0  0  0  0  0  0  0  0  0  0  0  0
   62.2435  152.1385  -45.7479 H   0  0  0  0  0  0  0  0  0  0  0  0
   60.9562  156.2050  -45.9910 H   0  0  0  0  0  0  0  0  0  0  0  0
   62.3715  156.5220  -47.9987 H   0  0  0  0  0  0  0  0  0  0  0  0
  1 13  1  0
  1 14  2  0
  2 13  1  0
  2 28  1  0
  2 29  1  0
  3 14  1  0
  3 15  1  0
  3 31  1  0
  4 25  1  0
  4 33  1  0
  4 34  1  0
  5  6  2  0
  5  9  1  0
  5 26  1  0
  6  7  1  0
  6 27  1  0
  7 10  2  0
  7 30  1  0
  8  9  2  0
  8 10  1  0
  8 32  1  0
  9 35  1  0
 11 10  1  0
 11 12  1  0
 11 23  2  0
 12 13  2  0
 12 24  1  0
 14 24  1  0
 15 16  2  0
 15 20  1  0
 16 17  1  0
 16 36  1  0
 17 18  2  0
 17 37  1  0
 18 19  1  0
 18 25  1  0
 19 20  2  0
 19 38  1  0
 20 39  1  0
 21 25  2  0
 22 25  2  0
M  END
>  <lm5_entropy_jk>  (1) 
22.952794734129974

>  <number_of_rotatable_bonds>  (1) 
5

>  <IC50_NM>  (1) 
130

>  <charge>  (1) 
0

$$$$
