3RAH
     RDKit          3D

 46 49  0  0  1  0  0  0  0  0999 V2000
   65.6317  154.5484  -50.0599 N   0  0  0  0  0  0  0  0  0  0  0  0
   64.1526  155.2390  -48.3544 N   0  0  0  0  0  0  0  0  0  0  0  0
   67.2980  153.6113  -51.4081 N   0  0  0  0  0  0  0  0  0  0  0  0
   68.6001  149.2984  -45.6144 C   0  0  0  0  0  0  0  0  0  0  0  0
   68.9601  148.9243  -46.9324 C   0  0  0  0  0  0  0  0  0  0  0  0
   68.7943  149.7737  -47.9872 C   0  0  0  0  0  0  0  0  0  0  0  0
   67.9014  151.4464  -46.5183 C   0  0  0  0  0  0  0  0  0  0  0  0
   68.0491  150.5799  -45.4095 C   0  0  0  0  0  0  0  0  0  0  0  0
   68.7460  148.4239  -44.5070 C   0  0  0  0  0  0  0  0  0  0  0  0
   68.3540  148.8154  -43.2601 C   0  0  0  0  0  0  0  0  0  0  0  0
   67.7819  150.0928  -43.0603 C   0  0  0  0  0  0  0  0  0  0  0  0
   67.6277  150.9515  -44.1079 C   0  0  0  0  0  0  0  0  0  0  0  0
   68.2488  151.0714  -47.7898 C   0  0  0  0  0  0  0  0  0  0  0  0
   68.1012  151.9711  -48.9969 C   0  0  0  0  0  0  0  0  0  0  0  0
   67.0152  152.9054  -49.1010 C   0  0  0  0  0  0  0  0  0  0  0  0
   66.6731  153.6702  -50.2214 C   0  0  0  0  0  0  0  0  0  0  0  0
   65.1095  154.4130  -48.8635 C   0  0  0  0  0  0  0  0  0  0  0  0
   63.5593  155.0314  -47.0281 C   0  0  0  0  0  0  0  0  0  0  0  0
   62.5997  153.8488  -46.9073 C   0  0  0  0  0  0  0  0  0  0  0  0
   62.0853  153.7253  -45.4685 C   0  0  0  0  0  0  0  0  0  0  0  0
   61.3961  154.9983  -44.9870 C   0  0  0  0  0  0  0  0  0  0  0  0
   62.3185  156.1999  -45.1596 C   0  0  0  0  0  0  0  0  0  0  0  0
   62.8443  156.3042  -46.5903 C   0  0  0  0  0  0  0  0  0  0  0  0
   68.9476  151.8865  -49.8901 O   0  0  0  0  0  0  0  0  0  0  0  0
   65.7984  153.1849  -47.8795 S   0  0  0  0  0  0  0  0  0  0  0  0
   69.3400  147.9217  -47.0802 H   0  0  0  0  0  0  0  0  0  0  0  0
   69.0490  149.4504  -48.9840 H   0  0  0  0  0  0  0  0  0  0  0  0
   63.4864  155.5366  -49.0673 H   0  0  0  0  0  0  0  0  0  0  0  0
   67.4962  152.4226  -46.3227 H   0  0  0  0  0  0  0  0  0  0  0  0
   66.9707  154.1355  -52.2154 H   0  0  0  0  0  0  0  0  0  0  0  0
   68.0574  152.9634  -51.5182 H   0  0  0  0  0  0  0  0  0  0  0  0
   69.1447  147.4327  -44.6783 H   0  0  0  0  0  0  0  0  0  0  0  0
   68.4602  148.1476  -42.4155 H   0  0  0  0  0  0  0  0  0  0  0  0
   67.4384  150.3726  -42.0755 H   0  0  0  0  0  0  0  0  0  0  0  0
   67.1400  151.9065  -43.9669 H   0  0  0  0  0  0  0  0  0  0  0  0
   64.3887  154.8546  -46.3442 H   0  0  0  0  0  0  0  0  0  0  0  0
   63.0925  152.9236  -47.2021 H   0  0  0  0  0  0  0  0  0  0  0  0
   61.7610  154.0062  -47.5904 H   0  0  0  0  0  0  0  0  0  0  0  0
   62.9273  153.5044  -44.8037 H   0  0  0  0  0  0  0  0  0  0  0  0
   61.4076  152.8783  -45.3879 H   0  0  0  0  0  0  0  0  0  0  0  0
   61.0966  154.8918  -43.9436 H   0  0  0  0  0  0  0  0  0  0  0  0
   60.4796  155.1616  -45.5586 H   0  0  0  0  0  0  0  0  0  0  0  0
   61.7992  157.1215  -44.9000 H   0  0  0  0  0  0  0  0  0  0  0  0
   63.1637  156.1088  -44.4698 H   0  0  0  0  0  0  0  0  0  0  0  0
   62.0056  156.4707  -47.2758 H   0  0  0  0  0  0  0  0  0  0  0  0
   63.5200  157.1475  -46.6791 H   0  0  0  0  0  0  0  0  0  0  0  0
  1 17  2  0
  2 18  1  0
  2 28  1  0
  3 16  1  0
  3 30  1  0
  3 31  1  0
  4  9  1  0
  5  4  2  0
  5 26  1  0
  6  5  1  0
  6 27  1  0
  7  8  2  0
  7 29  1  0
  8  4  1  0
  8 12  1  0
  9 10  2  0
  9 32  1  0
 10 33  1  0
 11 10  1  0
 11 34  1  0
 12 11  2  0
 12 35  1  0
 13  6  2  0
 13  7  1  0
 14 13  1  0
 14 24  2  0
 15 14  1  0
 15 25  1  0
 16  1  1  0
 16 15  2  0
 17  2  1  0
 17 25  1  0
 18 23  1  0
 18 36  1  0
 19 18  1  0
 19 20  1  0
 19 37  1  0
 19 38  1  0
 20 21  1  0
 20 39  1  0
 20 40  1  0
 21 41  1  0
 21 42  1  0
 22 21  1  0
 22 43  1  0
 22 44  1  0
 23 22  1  0
 23 45  1  0
 23 46  1  0
M  END
>  <lm5_entropy_jk>  (1) 
20.76925268888156

>  <number_of_rotatable_bonds>  (1) 
4

>  <IC50_NM>  (1) 
12000

>  <charge>  (1) 
0

$$$$
