3RK5
     RDKit          3D

 35 37  0  0  1  0  0  0  0  0999 V2000
   64.3296  154.6820  -48.4576 N   0  0  0  0  0  0  0  0  0  0  0  0
   65.7576  154.3758  -50.2864 N   0  0  0  0  0  0  0  0  0  0  0  0
   67.3002  153.6327  -51.9084 N   0  0  0  0  0  0  0  0  0  0  0  0
   70.7497  150.1089  -47.4109 N   0  0  0  0  0  0  0  0  0  0  0  0
   63.7672  154.5654  -47.1573 C   0  0  0  0  0  0  0  0  0  0  0  0
   65.4068  154.0966  -49.0491 C   0  0  0  0  0  0  0  0  0  0  0  0
   66.8423  153.6157  -50.6492 C   0  0  0  0  0  0  0  0  0  0  0  0
   67.4137  152.8312  -49.6430 C   0  0  0  0  0  0  0  0  0  0  0  0
   68.5231  151.9418  -49.8125 C   0  0  0  0  0  0  0  0  0  0  0  0
   68.9243  151.0087  -48.7022 C   0  0  0  0  0  0  0  0  0  0  0  0
   68.0483  150.0946  -48.1420 C   0  0  0  0  0  0  0  0  0  0  0  0
   68.5396  149.1835  -47.2257 C   0  0  0  0  0  0  0  0  0  0  0  0
   69.8837  149.2179  -46.9051 C   0  0  0  0  0  0  0  0  0  0  0  0
   70.2474  150.9731  -48.2871 C   0  0  0  0  0  0  0  0  0  0  0  0
   63.1125  155.6887  -46.6472 C   0  0  0  0  0  0  0  0  0  0  0  0
   62.5285  155.6675  -45.3941 C   0  0  0  0  0  0  0  0  0  0  0  0
   62.5538  154.5353  -44.5817 C   0  0  0  0  0  0  0  0  0  0  0  0
   63.1924  153.4174  -45.1104 C   0  0  0  0  0  0  0  0  0  0  0  0
   63.7748  153.4137  -46.3776 C   0  0  0  0  0  0  0  0  0  0  0  0
   61.8925  154.5640  -43.1731 C   0  0  0  0  0  0  0  0  0  0  0  0
   69.1931  151.9199  -50.8446 O   0  0  0  0  0  0  0  0  0  0  0  0
   60.7412  155.0584  -43.1397 O   0  0  0  0  0  0  0  0  0  0  0  0
   62.5984  154.1324  -42.2504 O   0  0  0  0  0  0  0  0  0  0  0  0
   66.4421  152.9998  -48.1991 S   0  0  0  0  0  0  0  0  0  0  0  0
   63.7507  155.2194  -49.0962 H   0  0  0  0  0  0  0  0  0  0  0  0
   66.9188  154.2140  -52.6498 H   0  0  0  0  0  0  0  0  0  0  0  0
   68.1098  153.0810  -52.1295 H   0  0  0  0  0  0  0  0  0  0  0  0
   67.0094  150.0640  -48.4294 H   0  0  0  0  0  0  0  0  0  0  0  0
   67.8859  148.4495  -46.7721 H   0  0  0  0  0  0  0  0  0  0  0  0
   70.2897  148.5043  -46.2024 H   0  0  0  0  0  0  0  0  0  0  0  0
   70.9417  151.6983  -48.6826 H   0  0  0  0  0  0  0  0  0  0  0  0
   63.0363  156.5792  -47.2527 H   0  0  0  0  0  0  0  0  0  0  0  0
   62.0412  156.5536  -45.0184 H   0  0  0  0  0  0  0  0  0  0  0  0
   63.2176  152.5050  -44.5279 H   0  0  0  0  0  0  0  0  0  0  0  0
   64.2147  152.5017  -46.7474 H   0  0  0  0  0  0  0  0  0  0  0  0
  1  5  1  0
  1  6  1  0
  1 25  1  0
  2  6  2  0
  2  7  1  0
  3  7  1  0
  3 26  1  0
  3 27  1  0
  4 13  2  0
  4 14  1  0
  5 15  2  0
  5 19  1  0
  6 24  1  0
  7  8  2  0
  8 24  1  0
  9  8  1  0
  9 10  1  0
  9 21  2  0
 10 11  1  0
 10 14  2  0
 11 12  2  0
 11 28  1  0
 12 13  1  0
 12 29  1  0
 13 30  1  0
 14 31  1  0
 15 16  1  0
 15 32  1  0
 16 17  2  0
 16 33  1  0
 17 18  1  0
 17 20  1  0
 18 19  2  0
 18 34  1  0
 19 35  1  0
 20 22  2  0
 20 23  1  0
M  CHG  1  23  -1
M  END
>  <lm5_entropy_jk>  (1) 
20.582349174783765

>  <number_of_rotatable_bonds>  (1) 
5

>  <IC50_NM>  (1) 
4000

>  <charge>  (1) 
-1

$$$$
