3QQK
     RDKit          3D

 31 32  0  0  0  0  0  0  0  0999 V2000
   62.7600  153.2223  -46.3311 C   0  0  0  0  0  0  0  0  0  0  0  0
   62.7742  154.1305  -47.2923 C   0  0  0  0  0  0  0  0  0  0  0  0
   63.8908  155.1234  -47.4832 C   0  0  0  0  0  0  0  0  0  0  0  0
   64.3615  155.2086  -48.8503 N   0  0  0  0  0  0  0  0  0  0  0  0
   65.3361  154.4429  -49.3354 C   0  0  0  0  0  0  0  0  0  0  0  0
   65.7496  154.4914  -50.5882 N   0  0  0  0  0  0  0  0  0  0  0  0
   66.7999  153.6315  -50.7766 C   0  0  0  0  0  0  0  0  0  0  0  0
   67.2013  152.8916  -49.6591 C   0  0  0  0  0  0  0  0  0  0  0  0
   66.1558  153.2918  -48.3170 S   0  0  0  0  0  0  0  0  0  0  0  0
   67.3501  153.5155  -51.9847 N   0  0  0  0  0  0  0  0  0  0  0  0
   68.2573  151.9262  -49.6815 C   0  0  0  0  0  0  0  0  0  0  0  0
   68.3819  150.8934  -48.5972 C   0  0  0  0  0  0  0  0  0  0  0  0
   67.2540  150.2435  -48.1043 C   0  0  0  0  0  0  0  0  0  0  0  0
   67.3749  149.2184  -47.1787 C   0  0  0  0  0  0  0  0  0  0  0  0
   68.6343  148.8377  -46.7393 C   0  0  0  0  0  0  0  0  0  0  0  0
   69.7612  149.4836  -47.2271 C   0  0  0  0  0  0  0  0  0  0  0  0
   69.6424  150.4965  -48.1654 C   0  0  0  0  0  0  0  0  0  0  0  0
   69.0582  151.8983  -50.6219 O   0  0  0  0  0  0  0  0  0  0  0  0
   61.9269  152.5551  -46.1768 H   0  0  0  0  0  0  0  0  0  0  0  0
   63.5939  153.1183  -45.6460 H   0  0  0  0  0  0  0  0  0  0  0  0
   61.9556  154.2195  -47.9995 H   0  0  0  0  0  0  0  0  0  0  0  0
   63.5403  156.1158  -47.2019 H   0  0  0  0  0  0  0  0  0  0  0  0
   64.7198  154.8821  -46.8257 H   0  0  0  0  0  0  0  0  0  0  0  0
   63.7621  155.6918  -49.5172 H   0  0  0  0  0  0  0  0  0  0  0  0
   67.0731  154.1181  -52.7477 H   0  0  0  0  0  0  0  0  0  0  0  0
   68.1900  152.9550  -52.0195 H   0  0  0  0  0  0  0  0  0  0  0  0
   66.2781  150.5192  -48.4676 H   0  0  0  0  0  0  0  0  0  0  0  0
   66.4932  148.7181  -46.8087 H   0  0  0  0  0  0  0  0  0  0  0  0
   68.7330  148.0269  -46.0308 H   0  0  0  0  0  0  0  0  0  0  0  0
   70.7419  149.1797  -46.8915 H   0  0  0  0  0  0  0  0  0  0  0  0
   70.5200  150.9728  -48.5751 H   0  0  0  0  0  0  0  0  0  0  0  0
  1  2  2  0
  1 19  1  0
  1 20  1  0
  2 21  1  0
  3  2  1  0
  3 22  1  0
  3 23  1  0
  4  3  1  0
  4 24  1  0
  5  4  1  0
  5  9  1  0
  6  5  2  0
  7  6  1  0
  7  8  2  0
  8  9  1  0
 10  7  1  0
 10 25  1  0
 10 26  1  0
 11  8  1  0
 11 12  1  0
 12 17  1  0
 12 13  2  0
 13 14  1  0
 13 27  1  0
 14 15  2  0
 14 28  1  0
 15 29  1  0
 16 15  1  0
 16 30  1  0
 17 16  2  0
 17 31  1  0
 18 11  2  0
M  END
>  <lm5_entropy_jk>  (1) 
22.397995528352578

>  <number_of_rotatable_bonds>  (1) 
5

>  <IC50_NM>  (1) 
15000

>  <charge>  (1) 
0

$$$$
