3QTR
     RDKit          3D

 34 36  0  0  1  0  0  0  0  0999 V2000
   65.7759  154.3391  -50.3483 N   0  0  0  0  0  0  0  0  0  0  0  0
   67.3586  153.5669  -51.8969 N   0  0  0  0  0  0  0  0  0  0  0  0
   64.3420  154.7457  -48.5600 N   0  0  0  0  0  0  0  0  0  0  0  0
   66.8672  153.5711  -50.6587 C   0  0  0  0  0  0  0  0  0  0  0  0
   67.3719  152.7782  -49.6254 C   0  0  0  0  0  0  0  0  0  0  0  0
   68.4226  151.8190  -49.7609 C   0  0  0  0  0  0  0  0  0  0  0  0
   68.6134  150.7712  -48.6987 C   0  0  0  0  0  0  0  0  0  0  0  0
   67.5210  150.0660  -48.1975 C   0  0  0  0  0  0  0  0  0  0  0  0
   67.6957  149.0659  -47.2541 C   0  0  0  0  0  0  0  0  0  0  0  0
   68.9739  148.7693  -46.8020 C   0  0  0  0  0  0  0  0  0  0  0  0
   70.0640  149.4636  -47.3039 C   0  0  0  0  0  0  0  0  0  0  0  0
   69.8928  150.4496  -48.2638 C   0  0  0  0  0  0  0  0  0  0  0  0
   65.4096  154.1280  -49.0956 C   0  0  0  0  0  0  0  0  0  0  0  0
   63.6196  154.4242  -47.3940 C   0  0  0  0  0  0  0  0  0  0  0  0
   62.7439  155.4015  -46.9202 C   0  0  0  0  0  0  0  0  0  0  0  0
   61.9395  155.1507  -45.8246 C   0  0  0  0  0  0  0  0  0  0  0  0
   61.9909  153.9247  -45.1773 C   0  0  0  0  0  0  0  0  0  0  0  0
   62.8608  152.9563  -45.6445 C   0  0  0  0  0  0  0  0  0  0  0  0
   63.6691  153.1905  -46.7475 C   0  0  0  0  0  0  0  0  0  0  0  0
   69.1526  151.8172  -50.7552 O   0  0  0  0  0  0  0  0  0  0  0  0
   66.4087  153.0320  -48.2003 S   0  0  0  0  0  0  0  0  0  0  0  0
   66.9887  154.1578  -52.6277 H   0  0  0  0  0  0  0  0  0  0  0  0
   68.1866  153.0045  -52.0251 H   0  0  0  0  0  0  0  0  0  0  0  0
   66.5294  150.2822  -48.5629 H   0  0  0  0  0  0  0  0  0  0  0  0
   66.8395  148.5289  -46.8740 H   0  0  0  0  0  0  0  0  0  0  0  0
   69.1152  147.9820  -46.0751 H   0  0  0  0  0  0  0  0  0  0  0  0
   71.0566  149.2173  -46.9547 H   0  0  0  0  0  0  0  0  0  0  0  0
   70.7440  150.9693  -48.6776 H   0  0  0  0  0  0  0  0  0  0  0  0
   63.8424  155.3736  -49.1862 H   0  0  0  0  0  0  0  0  0  0  0  0
   62.6618  156.3394  -47.4474 H   0  0  0  0  0  0  0  0  0  0  0  0
   61.2474  155.9148  -45.5002 H   0  0  0  0  0  0  0  0  0  0  0  0
   61.3497  153.7144  -44.3341 H   0  0  0  0  0  0  0  0  0  0  0  0
   62.8980  151.9945  -45.1592 H   0  0  0  0  0  0  0  0  0  0  0  0
   64.2913  152.3944  -47.1136 H   0  0  0  0  0  0  0  0  0  0  0  0
  1  4  1  0
  1 13  2  0
  2  4  1  0
  2 22  1  0
  2 23  1  0
  3 13  1  0
  3 14  1  0
  3 29  1  0
  4  5  2  0
  5 21  1  0
  6  5  1  0
  6  7  1  0
  6 20  2  0
  7  8  2  0
  7 12  1  0
  8  9  1  0
  8 24  1  0
  9 10  2  0
  9 25  1  0
 10 11  1  0
 10 26  1  0
 11 12  2  0
 11 27  1  0
 12 28  1  0
 13 21  1  0
 14 15  2  0
 14 19  1  0
 15 16  1  0
 15 30  1  0
 16 17  2  0
 16 31  1  0
 17 18  1  0
 17 32  1  0
 18 19  2  0
 18 33  1  0
 19 34  1  0
M  END
>  <lm5_entropy_jk>  (1) 
21.136452688881562

>  <number_of_rotatable_bonds>  (1) 
4

>  <IC50_NM>  (1) 
930

>  <charge>  (1) 
0

$$$$
