3R9D
     RDKit          3D

 41 43  0  0  0  0  0  0  0  0999 V2000
   65.7985  154.4642  -50.5761 N   0  0  0  0  0  0  0  0  0  0  0  0
   64.4207  155.0324  -48.7682 N   0  0  0  0  0  0  0  0  0  0  0  0
   68.6622  151.2552  -48.6965 N   0  0  0  0  0  0  0  0  0  0  0  0
   67.3647  153.5831  -52.1124 N   0  0  0  0  0  0  0  0  0  0  0  0
   62.0607  153.0304  -42.9366 N   0  0  0  0  0  0  0  0  0  0  0  0
   67.4651  153.0240  -49.7794 C   0  0  0  0  0  0  0  0  0  0  0  0
   66.9026  153.6855  -50.8577 C   0  0  0  0  0  0  0  0  0  0  0  0
   65.4617  154.3358  -49.3212 C   0  0  0  0  0  0  0  0  0  0  0  0
   63.7033  154.7366  -47.5824 C   0  0  0  0  0  0  0  0  0  0  0  0
   68.5666  152.0831  -49.8074 C   0  0  0  0  0  0  0  0  0  0  0  0
   62.7620  155.6700  -47.1409 C   0  0  0  0  0  0  0  0  0  0  0  0
   62.0126  155.4484  -46.0013 C   0  0  0  0  0  0  0  0  0  0  0  0
   62.2018  154.2895  -45.2641 C   0  0  0  0  0  0  0  0  0  0  0  0
   63.1220  153.3494  -45.6953 C   0  0  0  0  0  0  0  0  0  0  0  0
   63.8550  153.5608  -46.8503 C   0  0  0  0  0  0  0  0  0  0  0  0
   69.6609  150.3151  -48.3881 C   0  0  0  0  0  0  0  0  0  0  0  0
   69.4419  149.4698  -47.2963 C   0  0  0  0  0  0  0  0  0  0  0  0
   70.4011  148.5411  -46.9298 C   0  0  0  0  0  0  0  0  0  0  0  0
   71.6069  148.4422  -47.6111 C   0  0  0  0  0  0  0  0  0  0  0  0
   71.7849  149.2829  -48.6893 C   0  0  0  0  0  0  0  0  0  0  0  0
   70.8523  150.2116  -49.1039 C   0  0  0  0  0  0  0  0  0  0  0  0
   69.3671  152.0456  -50.7322 O   0  0  0  0  0  0  0  0  0  0  0  0
   60.0504  153.1046  -44.4730 O   0  0  0  0  0  0  0  0  0  0  0  0
   60.7480  155.0952  -43.1948 O   0  0  0  0  0  0  0  0  0  0  0  0
   66.5150  153.3412  -48.3713 S   0  0  0  0  0  0  0  0  0  0  0  0
   61.1066  153.9045  -43.9211 S   0  0  0  0  0  0  0  0  0  0  0  0
   72.9292  149.1843  -49.4013 F   0  0  0  0  0  0  0  0  0  0  0  0
   63.8645  155.5564  -49.4432 H   0  0  0  0  0  0  0  0  0  0  0  0
   67.8282  151.1649  -48.1380 H   0  0  0  0  0  0  0  0  0  0  0  0
   66.9779  154.1327  -52.8742 H   0  0  0  0  0  0  0  0  0  0  0  0
   68.2212  153.0842  -52.2730 H   0  0  0  0  0  0  0  0  0  0  0  0
   62.0702  152.0244  -43.1797 H   0  0  0  0  0  0  0  0  0  0  0  0
   61.9395  153.2299  -41.9606 H   0  0  0  0  0  0  0  0  0  0  0  0
   62.5785  156.5590  -47.7257 H   0  0  0  0  0  0  0  0  0  0  0  0
   61.2684  156.1625  -45.6884 H   0  0  0  0  0  0  0  0  0  0  0  0
   63.2659  152.4258  -45.1526 H   0  0  0  0  0  0  0  0  0  0  0  0
   64.4979  152.7705  -47.1879 H   0  0  0  0  0  0  0  0  0  0  0  0
   68.4972  149.5011  -46.7594 H   0  0  0  0  0  0  0  0  0  0  0  0
   70.1795  147.8424  -46.1321 H   0  0  0  0  0  0  0  0  0  0  0  0
   72.3132  147.6556  -47.3828 H   0  0  0  0  0  0  0  0  0  0  0  0
   71.0209  150.7996  -49.9887 H   0  0  0  0  0  0  0  0  0  0  0  0
  1  8  2  0
  2  9  1  0
  2 28  1  0
  3 16  1  0
  3 29  1  0
  4  7  1  0
  4 30  1  0
  4 31  1  0
  5 32  1  0
  5 33  1  0
  6 25  1  0
  7  1  1  0
  7  6  2  0
  8  2  1  0
  8 25  1  0
  9 11  2  0
  9 15  1  0
 10  6  1  0
 10  3  1  0
 11 12  1  0
 11 34  1  0
 12 13  2  0
 12 35  1  0
 13 26  1  0
 14 13  1  0
 14 36  1  0
 15 14  2  0
 15 37  1  0
 16 17  2  0
 17 18  1  0
 17 38  1  0
 18 39  1  0
 19 18  2  0
 19 40  1  0
 20 19  1  0
 21 20  2  0
 21 16  1  0
 21 41  1  0
 22 10  2  0
 23 26  2  0
 26 24  2  0
 26  5  1  0
 27 20  1  0
M  END
>  <lm5_entropy_jk>  (1) 
21.052089499889224

>  <number_of_rotatable_bonds>  (1) 
6

>  <IC50_NM>  (1) 
71000

>  <charge>  (1) 
0

$$$$
