3RPY
     RDKit          3D

 31 32  0  0  0  0  0  0  0  0999 V2000
   68.6193  151.9141  -49.7086 C   0  0  0  0  0  0  0  0  0  0  0  0
   65.8745  154.3336  -50.3159 N   0  0  0  0  0  0  0  0  0  0  0  0
   59.9632  152.9787  -44.5524 O   0  0  0  0  0  0  0  0  0  0  0  0
   66.5692  153.0693  -48.1682 S   0  0  0  0  0  0  0  0  0  0  0  0
   67.4179  153.5438  -51.8939 N   0  0  0  0  0  0  0  0  0  0  0  0
   60.6210  154.8930  -43.1805 O   0  0  0  0  0  0  0  0  0  0  0  0
   61.0273  153.6851  -43.8706 S   0  0  0  0  0  0  0  0  0  0  0  0
   64.4929  154.7991  -48.5039 N   0  0  0  0  0  0  0  0  0  0  0  0
   61.7804  152.7380  -42.8236 N   0  0  0  0  0  0  0  0  0  0  0  0
   67.5191  152.8333  -49.6006 C   0  0  0  0  0  0  0  0  0  0  0  0
   66.9686  153.5684  -50.6403 C   0  0  0  0  0  0  0  0  0  0  0  0
   65.5360  154.1480  -49.0610 C   0  0  0  0  0  0  0  0  0  0  0  0
   63.7825  154.5048  -47.3336 C   0  0  0  0  0  0  0  0  0  0  0  0
   63.7942  153.2533  -46.7138 C   0  0  0  0  0  0  0  0  0  0  0  0
   63.0122  153.0265  -45.5988 C   0  0  0  0  0  0  0  0  0  0  0  0
   62.2152  154.0483  -45.1018 C   0  0  0  0  0  0  0  0  0  0  0  0
   62.1758  155.2910  -45.7146 C   0  0  0  0  0  0  0  0  0  0  0  0
   62.9668  155.5176  -46.8227 C   0  0  0  0  0  0  0  0  0  0  0  0
   69.2128  151.7182  -50.7683 O   0  0  0  0  0  0  0  0  0  0  0  0
   69.0123  151.2671  -48.5594 N   0  0  0  0  0  0  0  0  0  0  0  0
   67.0356  154.1397  -52.6121 H   0  0  0  0  0  0  0  0  0  0  0  0
   68.2221  152.9587  -52.0545 H   0  0  0  0  0  0  0  0  0  0  0  0
   63.9916  155.4236  -49.1328 H   0  0  0  0  0  0  0  0  0  0  0  0
   61.9220  151.7467  -43.1300 H   0  0  0  0  0  0  0  0  0  0  0  0
   61.4475  152.8668  -41.8814 H   0  0  0  0  0  0  0  0  0  0  0  0
   64.3456  152.4312  -47.1335 H   0  0  0  0  0  0  0  0  0  0  0  0
   63.0066  152.0477  -45.1356 H   0  0  0  0  0  0  0  0  0  0  0  0
   61.5157  156.0627  -45.3457 H   0  0  0  0  0  0  0  0  0  0  0  0
   62.9069  156.4631  -47.3384 H   0  0  0  0  0  0  0  0  0  0  0  0
   69.6616  150.5124  -48.6825 H   0  0  0  0  0  0  0  0  0  0  0  0
   68.3864  151.2082  -47.7777 H   0  0  0  0  0  0  0  0  0  0  0  0
  1 10  1  0
  1 20  1  0
  2 12  2  0
  3  7  2  0
  5 11  1  0
  5 21  1  0
  5 22  1  0
  7  6  2  0
  7  9  1  0
  8 13  1  0
  8 23  1  0
  9 24  1  0
  9 25  1  0
 10  4  1  0
 11  2  1  0
 11 10  2  0
 12  8  1  0
 12  4  1  0
 13 18  1  0
 13 14  2  0
 14 15  1  0
 14 26  1  0
 15 16  2  0
 15 27  1  0
 16  7  1  0
 17 16  1  0
 17 28  1  0
 18 17  2  0
 18 29  1  0
 19  1  2  0
 20 30  1  0
 20 31  1  0
M  END
>  <lm5_entropy_jk>  (1) 
19.643205717801273

>  <number_of_rotatable_bonds>  (1) 
4

>  <IC50_NM>  (1) 
4800

>  <charge>  (1) 
0

$$$$
