3QTX
     RDKit          3D

 41 43  0  0  1  0  0  0  0  0999 V2000
   65.9344  154.3080  -50.2689 N   0  0  0  0  0  0  0  0  0  0  0  0
   67.4344  153.4611  -51.8608 N   0  0  0  0  0  0  0  0  0  0  0  0
   64.5704  154.8073  -48.4491 N   0  0  0  0  0  0  0  0  0  0  0  0
   70.8421  149.0693  -46.3158 N   0  0  0  0  0  0  0  0  0  0  0  0
   61.5869  152.7683  -42.7593 N   0  0  0  0  0  0  0  0  0  0  0  0
   66.9584  153.4672  -50.6161 C   0  0  0  0  0  0  0  0  0  0  0  0
   67.4165  152.6129  -49.6111 C   0  0  0  0  0  0  0  0  0  0  0  0
   68.3042  151.5074  -49.7806 C   0  0  0  0  0  0  0  0  0  0  0  0
   68.3692  150.4997  -48.6597 C   0  0  0  0  0  0  0  0  0  0  0  0
   69.5743  150.2041  -48.0559 C   0  0  0  0  0  0  0  0  0  0  0  0
   69.5736  149.3182  -46.9913 C   0  0  0  0  0  0  0  0  0  0  0  0
   68.4334  148.6977  -46.5217 C   0  0  0  0  0  0  0  0  0  0  0  0
   67.2332  148.9754  -47.1534 C   0  0  0  0  0  0  0  0  0  0  0  0
   67.2095  149.8693  -48.2099 C   0  0  0  0  0  0  0  0  0  0  0  0
   65.5758  154.1013  -49.0153 C   0  0  0  0  0  0  0  0  0  0  0  0
   63.8399  154.5291  -47.2847 C   0  0  0  0  0  0  0  0  0  0  0  0
   63.0062  155.5471  -46.8126 C   0  0  0  0  0  0  0  0  0  0  0  0
   62.1948  155.3480  -45.7136 C   0  0  0  0  0  0  0  0  0  0  0  0
   62.2200  154.1183  -45.0725 C   0  0  0  0  0  0  0  0  0  0  0  0
   63.0380  153.0949  -45.5250 C   0  0  0  0  0  0  0  0  0  0  0  0
   63.8490  153.2972  -46.6255 C   0  0  0  0  0  0  0  0  0  0  0  0
   68.9723  151.3405  -50.8017 O   0  0  0  0  0  0  0  0  0  0  0  0
   71.8101  149.7125  -46.6973 O   0  0  0  0  0  0  0  0  0  0  0  0
   70.8942  148.2618  -45.4094 O   0  0  0  0  0  0  0  0  0  0  0  0
   59.9677  153.0226  -44.5627 O   0  0  0  0  0  0  0  0  0  0  0  0
   60.5955  154.9931  -43.2227 O   0  0  0  0  0  0  0  0  0  0  0  0
   66.5046  152.9185  -48.1586 S   0  0  0  0  0  0  0  0  0  0  0  0
   60.9946  153.7561  -43.8615 S   0  0  0  0  0  0  0  0  0  0  0  0
   67.0859  154.0886  -52.5705 H   0  0  0  0  0  0  0  0  0  0  0  0
   68.1857  152.8122  -52.0376 H   0  0  0  0  0  0  0  0  0  0  0  0
   70.4973  150.6495  -48.3804 H   0  0  0  0  0  0  0  0  0  0  0  0
   68.4969  148.0079  -45.6982 H   0  0  0  0  0  0  0  0  0  0  0  0
   66.3189  148.5101  -46.8124 H   0  0  0  0  0  0  0  0  0  0  0  0
   66.2723  150.0727  -48.7020 H   0  0  0  0  0  0  0  0  0  0  0  0
   64.0869  155.4381  -49.0820 H   0  0  0  0  0  0  0  0  0  0  0  0
   62.9566  156.4791  -47.3511 H   0  0  0  0  0  0  0  0  0  0  0  0
   61.5253  156.1277  -45.3816 H   0  0  0  0  0  0  0  0  0  0  0  0
   63.0214  152.1291  -45.0343 H   0  0  0  0  0  0  0  0  0  0  0  0
   64.4346  152.4705  -46.9843 H   0  0  0  0  0  0  0  0  0  0  0  0
   61.7782  151.7835  -43.0639 H   0  0  0  0  0  0  0  0  0  0  0  0
   62.2044  153.1680  -42.0729 H   0  0  0  0  0  0  0  0  0  0  0  0
  1  6  1  0
  1 15  2  0
  2  6  1  0
  2 29  1  0
  2 30  1  0
  3 15  1  0
  3 16  1  0
  3 35  1  0
  4 11  1  0
  4 23  2  0
  4 24  1  0
  5 28  1  0
  5 40  1  0
  5 41  1  0
  6  7  2  0
  7 27  1  0
  8  7  1  0
  8  9  1  0
  8 22  2  0
  9 10  2  0
  9 14  1  0
 10 11  1  0
 10 31  1  0
 11 12  2  0
 12 13  1  0
 12 32  1  0
 13 14  2  0
 13 33  1  0
 14 34  1  0
 15 27  1  0
 16 17  2  0
 16 21  1  0
 17 18  1  0
 17 36  1  0
 18 19  2  0
 18 37  1  0
 19 20  1  0
 19 28  1  0
 20 21  2  0
 20 38  1  0
 21 39  1  0
 25 28  2  0
 26 28  2  0
M  CHG  2   4   1  24  -1
M  END
>  <lm5_entropy_jk>  (1) 
24.48849005177307

>  <number_of_rotatable_bonds>  (1) 
6

>  <IC50_NM>  (1) 
70

>  <charge>  (1) 
0

$$$$
