3R9N
     RDKit          3D

 42 44  0  0  1  0  0  0  0  0999 V2000
   68.8231  151.1199  -44.1116 N   0  0  0  0  0  0  0  0  0  0  0  0
   65.4648  154.4307  -50.0377 N   0  0  0  0  0  0  0  0  0  0  0  0
   63.9069  154.9855  -48.3683 N   0  0  0  0  0  0  0  0  0  0  0  0
   67.1817  153.5332  -51.3569 N   0  0  0  0  0  0  0  0  0  0  0  0
   68.3603  149.2644  -45.6517 C   0  0  0  0  0  0  0  0  0  0  0  0
   68.5116  150.6262  -45.4661 C   0  0  0  0  0  0  0  0  0  0  0  0
   68.3860  151.5406  -46.5013 C   0  0  0  0  0  0  0  0  0  0  0  0
   68.1365  151.0560  -47.7764 C   0  0  0  0  0  0  0  0  0  0  0  0
   68.0272  149.6850  -47.9818 C   0  0  0  0  0  0  0  0  0  0  0  0
   68.1196  148.7918  -46.9297 C   0  0  0  0  0  0  0  0  0  0  0  0
   67.9841  151.9314  -49.0012 C   0  0  0  0  0  0  0  0  0  0  0  0
   66.9246  152.8766  -49.0501 C   0  0  0  0  0  0  0  0  0  0  0  0
   66.5514  153.6104  -50.1868 C   0  0  0  0  0  0  0  0  0  0  0  0
   64.9401  154.2865  -48.8305 C   0  0  0  0  0  0  0  0  0  0  0  0
   63.3552  154.7829  -47.0367 C   0  0  0  0  0  0  0  0  0  0  0  0
   62.3485  153.6372  -46.9661 C   0  0  0  0  0  0  0  0  0  0  0  0
   61.8642  153.4544  -45.5323 C   0  0  0  0  0  0  0  0  0  0  0  0
   61.2289  154.7356  -45.0059 C   0  0  0  0  0  0  0  0  0  0  0  0
   62.2117  155.8991  -45.0971 C   0  0  0  0  0  0  0  0  0  0  0  0
   62.7223  156.0717  -46.5244 C   0  0  0  0  0  0  0  0  0  0  0  0
   69.0840  152.3030  -43.9721 O   0  0  0  0  0  0  0  0  0  0  0  0
   68.8200  150.3289  -43.1885 O   0  0  0  0  0  0  0  0  0  0  0  0
   68.7488  151.7440  -49.9512 O   0  0  0  0  0  0  0  0  0  0  0  0
   65.7259  153.1116  -47.8102 S   0  0  0  0  0  0  0  0  0  0  0  0
   68.4328  148.5926  -44.8132 H   0  0  0  0  0  0  0  0  0  0  0  0
   68.4974  152.5917  -46.3016 H   0  0  0  0  0  0  0  0  0  0  0  0
   63.3605  155.5292  -49.0384 H   0  0  0  0  0  0  0  0  0  0  0  0
   66.8953  154.0735  -52.1628 H   0  0  0  0  0  0  0  0  0  0  0  0
   67.9658  152.9024  -51.4012 H   0  0  0  0  0  0  0  0  0  0  0  0
   67.8520  149.3293  -48.9835 H   0  0  0  0  0  0  0  0  0  0  0  0
   68.0105  147.7314  -47.0908 H   0  0  0  0  0  0  0  0  0  0  0  0
   64.1865  154.5343  -46.3774 H   0  0  0  0  0  0  0  0  0  0  0  0
   62.7954  152.7189  -47.3431 H   0  0  0  0  0  0  0  0  0  0  0  0
   61.5107  153.8791  -47.6257 H   0  0  0  0  0  0  0  0  0  0  0  0
   62.7147  153.1864  -44.8983 H   0  0  0  0  0  0  0  0  0  0  0  0
   61.1649  152.6285  -45.4577 H   0  0  0  0  0  0  0  0  0  0  0  0
   60.8887  154.5914  -43.9807 H   0  0  0  0  0  0  0  0  0  0  0  0
   60.3487  154.9747  -45.6075 H   0  0  0  0  0  0  0  0  0  0  0  0
   61.7433  156.8232  -44.7593 H   0  0  0  0  0  0  0  0  0  0  0  0
   63.0591  155.7087  -44.4314 H   0  0  0  0  0  0  0  0  0  0  0  0
   61.8993  156.3444  -47.1882 H   0  0  0  0  0  0  0  0  0  0  0  0
   63.4565  156.8724  -46.5625 H   0  0  0  0  0  0  0  0  0  0  0  0
  1  6  1  0
  1 21  1  0
  1 22  2  0
  2 13  1  0
  2 14  2  0
  3 14  1  0
  3 15  1  0
  3 27  1  0
  4 13  1  0
  4 28  1  0
  4 29  1  0
  5  6  2  0
  5 10  1  0
  5 25  1  0
  6  7  1  0
  7  8  2  0
  7 26  1  0
  8  9  1  0
  9 10  2  0
  9 30  1  0
 10 31  1  0
 11  8  1  0
 11 12  1  0
 11 23  2  0
 12 13  2  0
 12 24  1  0
 14 24  1  0
 15 16  1  0
 15 20  1  0
 15 32  1  0
 16 17  1  0
 16 33  1  0
 16 34  1  0
 17 18  1  0
 17 35  1  0
 17 36  1  0
 18 19  1  0
 18 37  1  0
 18 38  1  0
 19 20  1  0
 19 39  1  0
 19 40  1  0
 20 41  1  0
 20 42  1  0
M  CHG  2   1   1  21  -1
M  END
>  <lm5_entropy_jk>  (1) 
22.585594734129973

>  <number_of_rotatable_bonds>  (1) 
5

>  <IC50_NM>  (1) 
1400

>  <charge>  (1) 
0

$$$$
