3RNI
     RDKit          3D

 39 41  0  0  0  0  0  0  0  0999 V2000
   65.2056  154.2257  -50.5115 N   0  0  0  0  0  0  0  0  0  0  0  0
   63.7109  154.6793  -48.7975 N   0  0  0  0  0  0  0  0  0  0  0  0
   66.8216  153.4506  -52.0082 N   0  0  0  0  0  0  0  0  0  0  0  0
   60.3199  157.5740  -46.3957 N   0  0  0  0  0  0  0  0  0  0  0  0
   66.9251  152.8742  -49.6662 C   0  0  0  0  0  0  0  0  0  0  0  0
   66.3572  153.5246  -50.7640 C   0  0  0  0  0  0  0  0  0  0  0  0
   64.8297  154.0806  -49.2627 C   0  0  0  0  0  0  0  0  0  0  0  0
   68.0994  152.0658  -49.7694 C   0  0  0  0  0  0  0  0  0  0  0  0
   63.0268  154.4276  -47.6004 C   0  0  0  0  0  0  0  0  0  0  0  0
   68.5125  151.1007  -48.7013 C   0  0  0  0  0  0  0  0  0  0  0  0
   62.1726  155.4282  -47.1284 C   0  0  0  0  0  0  0  0  0  0  0  0
   61.4511  155.2004  -45.9701 C   0  0  0  0  0  0  0  0  0  0  0  0
   61.5531  154.0127  -45.2562 C   0  0  0  0  0  0  0  0  0  0  0  0
   62.3855  153.0257  -45.7437 C   0  0  0  0  0  0  0  0  0  0  0  0
   63.1047  153.2174  -46.9137 C   0  0  0  0  0  0  0  0  0  0  0  0
   67.5896  150.3685  -47.9586 C   0  0  0  0  0  0  0  0  0  0  0  0
   68.0209  149.3778  -47.0877 C   0  0  0  0  0  0  0  0  0  0  0  0
   69.3774  149.1277  -46.9504 C   0  0  0  0  0  0  0  0  0  0  0  0
   70.2999  149.8585  -47.6848 C   0  0  0  0  0  0  0  0  0  0  0  0
   69.8709  150.8336  -48.5661 C   0  0  0  0  0  0  0  0  0  0  0  0
   68.7999  152.1220  -50.7872 O   0  0  0  0  0  0  0  0  0  0  0  0
   58.9710  155.6457  -45.4462 O   0  0  0  0  0  0  0  0  0  0  0  0
   60.6022  156.8240  -44.0497 O   0  0  0  0  0  0  0  0  0  0  0  0
   65.8992  153.1291  -48.2750 S   0  0  0  0  0  0  0  0  0  0  0  0
   60.2556  156.3324  -45.3608 S   0  0  0  0  0  0  0  0  0  0  0  0
   63.2487  155.3188  -49.4482 H   0  0  0  0  0  0  0  0  0  0  0  0
   66.4926  154.0590  -52.7435 H   0  0  0  0  0  0  0  0  0  0  0  0
   67.7224  153.0075  -52.0972 H   0  0  0  0  0  0  0  0  0  0  0  0
   60.0882  158.4405  -45.9334 H   0  0  0  0  0  0  0  0  0  0  0  0
   59.7593  157.3681  -47.2231 H   0  0  0  0  0  0  0  0  0  0  0  0
   62.0623  156.3424  -47.6885 H   0  0  0  0  0  0  0  0  0  0  0  0
   60.9729  153.8489  -44.3605 H   0  0  0  0  0  0  0  0  0  0  0  0
   62.4339  152.0812  -45.2279 H   0  0  0  0  0  0  0  0  0  0  0  0
   63.6894  152.4045  -47.3062 H   0  0  0  0  0  0  0  0  0  0  0  0
   66.5320  150.5253  -48.0969 H   0  0  0  0  0  0  0  0  0  0  0  0
   67.2968  148.7813  -46.5548 H   0  0  0  0  0  0  0  0  0  0  0  0
   69.7098  148.3302  -46.3016 H   0  0  0  0  0  0  0  0  0  0  0  0
   71.3524  149.6272  -47.6150 H   0  0  0  0  0  0  0  0  0  0  0  0
   70.5743  151.3757  -49.1807 H   0  0  0  0  0  0  0  0  0  0  0  0
  1  7  2  0
  2  9  1  0
  2 26  1  0
  3  6  1  0
  3 27  1  0
  3 28  1  0
  4 25  1  0
  4 29  1  0
  4 30  1  0
  5 24  1  0
  6  1  1  0
  6  5  2  0
  7  2  1  0
  7 24  1  0
  8  5  1  0
  8 10  1  0
  9 11  2  0
  9 15  1  0
 10 20  1  0
 10 16  2  0
 11 12  1  0
 11 31  1  0
 12 25  1  0
 12 13  2  0
 13 32  1  0
 14 13  1  0
 14 33  1  0
 15 14  2  0
 15 34  1  0
 16 17  1  0
 16 35  1  0
 17 18  2  0
 17 36  1  0
 18 37  1  0
 19 18  1  0
 19 38  1  0
 20 19  2  0
 20 39  1  0
 21  8  2  0
 25 22  2  0
 25 23  2  0
M  END
>  <lm5_entropy_jk>  (1) 
22.397995528352578

>  <number_of_rotatable_bonds>  (1) 
5

>  <IC50_NM>  (1) 
6700

>  <charge>  (1) 
0

$$$$
