3QTW
     RDKit          3D

 33 35  0  0  1  0  0  0  0  0999 V2000
   65.8165  154.3846  -50.4422 N   0  0  0  0  0  0  0  0  0  0  0  0
   67.3480  153.6505  -52.0821 N   0  0  0  0  0  0  0  0  0  0  0  0
   70.9002  150.1643  -47.6495 N   0  0  0  0  0  0  0  0  0  0  0  0
   64.4360  154.7163  -48.5678 N   0  0  0  0  0  0  0  0  0  0  0  0
   66.9023  153.6296  -50.8214 C   0  0  0  0  0  0  0  0  0  0  0  0
   67.5052  152.8613  -49.8203 C   0  0  0  0  0  0  0  0  0  0  0  0
   68.5898  151.9451  -50.0135 C   0  0  0  0  0  0  0  0  0  0  0  0
   69.0305  151.0445  -48.8909 C   0  0  0  0  0  0  0  0  0  0  0  0
   70.3766  150.9903  -48.5532 C   0  0  0  0  0  0  0  0  0  0  0  0
   70.0413  149.3282  -47.0466 C   0  0  0  0  0  0  0  0  0  0  0  0
   68.6812  149.3125  -47.2940 C   0  0  0  0  0  0  0  0  0  0  0  0
   68.1646  150.1867  -48.2321 C   0  0  0  0  0  0  0  0  0  0  0  0
   65.5012  154.1305  -49.1890 C   0  0  0  0  0  0  0  0  0  0  0  0
   63.7687  154.3977  -47.3529 C   0  0  0  0  0  0  0  0  0  0  0  0
   62.8211  155.3130  -46.8816 C   0  0  0  0  0  0  0  0  0  0  0  0
   62.1479  155.0942  -45.6917 C   0  0  0  0  0  0  0  0  0  0  0  0
   62.4065  153.9609  -44.9354 C   0  0  0  0  0  0  0  0  0  0  0  0
   63.3223  153.0421  -45.4093 C   0  0  0  0  0  0  0  0  0  0  0  0
   63.9822  153.2410  -46.6145 C   0  0  0  0  0  0  0  0  0  0  0  0
   69.2034  151.8741  -51.0794 O   0  0  0  0  0  0  0  0  0  0  0  0
   66.5894  153.0739  -48.3531 S   0  0  0  0  0  0  0  0  0  0  0  0
   66.9339  154.2096  -52.8239 H   0  0  0  0  0  0  0  0  0  0  0  0
   68.1475  153.0923  -52.3227 H   0  0  0  0  0  0  0  0  0  0  0  0
   71.0652  151.6670  -49.0309 H   0  0  0  0  0  0  0  0  0  0  0  0
   70.4656  148.6502  -46.3217 H   0  0  0  0  0  0  0  0  0  0  0  0
   68.0349  148.6207  -46.7672 H   0  0  0  0  0  0  0  0  0  0  0  0
   67.1108  150.1712  -48.4578 H   0  0  0  0  0  0  0  0  0  0  0  0
   63.8442  155.2610  -49.1921 H   0  0  0  0  0  0  0  0  0  0  0  0
   62.5932  156.1953  -47.4596 H   0  0  0  0  0  0  0  0  0  0  0  0
   61.4212  155.8162  -45.3489 H   0  0  0  0  0  0  0  0  0  0  0  0
   61.9045  153.7856  -43.9959 H   0  0  0  0  0  0  0  0  0  0  0  0
   63.5242  152.1434  -44.8407 H   0  0  0  0  0  0  0  0  0  0  0  0
   64.6454  152.4713  -46.9597 H   0  0  0  0  0  0  0  0  0  0  0  0
  1  5  1  0
  1 13  2  0
  2  5  1  0
  2 22  1  0
  2 23  1  0
  3  9  2  0
  3 10  1  0
  4 13  1  0
  4 14  1  0
  4 28  1  0
  5  6  2  0
  6 21  1  0
  7  6  1  0
  7  8  1  0
  7 20  2  0
  8  9  1  0
  8 12  2  0
  9 24  1  0
 10 11  2  0
 10 25  1  0
 11 12  1  0
 11 26  1  0
 12 27  1  0
 13 21  1  0
 14 15  2  0
 14 19  1  0
 15 16  1  0
 15 29  1  0
 16 17  2  0
 16 30  1  0
 17 18  1  0
 17 31  1  0
 18 19  2  0
 18 32  1  0
 19 33  1  0
M  END
>  <lm5_entropy_jk>  (1) 
20.66385753466715

>  <number_of_rotatable_bonds>  (1) 
4

>  <IC50_NM>  (1) 
650

>  <charge>  (1) 
0

$$$$
