3RK7
     RDKit          3D

 37 39  0  0  1  0  0  0  0  0999 V2000
   64.4158  154.5855  -48.4064 N   0  0  0  0  0  0  0  0  0  0  0  0
   65.8237  154.3010  -50.2049 N   0  0  0  0  0  0  0  0  0  0  0  0
   67.3496  153.6581  -51.8580 N   0  0  0  0  0  0  0  0  0  0  0  0
   71.0086  150.0672  -47.6564 N   0  0  0  0  0  0  0  0  0  0  0  0
   61.8345  153.0996  -42.6149 N   0  0  0  0  0  0  0  0  0  0  0  0
   63.7691  154.4005  -47.1738 C   0  0  0  0  0  0  0  0  0  0  0  0
   65.4912  153.9872  -48.9723 C   0  0  0  0  0  0  0  0  0  0  0  0
   66.9172  153.5803  -50.5986 C   0  0  0  0  0  0  0  0  0  0  0  0
   67.5010  152.7680  -49.6241 C   0  0  0  0  0  0  0  0  0  0  0  0
   68.6641  151.9710  -49.8384 C   0  0  0  0  0  0  0  0  0  0  0  0
   69.1061  150.9779  -48.8050 C   0  0  0  0  0  0  0  0  0  0  0  0
   68.2601  150.0863  -48.1603 C   0  0  0  0  0  0  0  0  0  0  0  0
   68.8103  149.1829  -47.2677 C   0  0  0  0  0  0  0  0  0  0  0  0
   70.1764  149.2123  -47.0465 C   0  0  0  0  0  0  0  0  0  0  0  0
   70.4639  150.9057  -48.5302 C   0  0  0  0  0  0  0  0  0  0  0  0
   62.9345  155.4318  -46.7317 C   0  0  0  0  0  0  0  0  0  0  0  0
   62.2534  155.3215  -45.5366 C   0  0  0  0  0  0  0  0  0  0  0  0
   62.3773  154.1868  -44.7361 C   0  0  0  0  0  0  0  0  0  0  0  0
   63.2018  153.1593  -45.1891 C   0  0  0  0  0  0  0  0  0  0  0  0
   63.8763  153.2510  -46.3986 C   0  0  0  0  0  0  0  0  0  0  0  0
   61.6315  154.1689  -43.4181 C   0  0  0  0  0  0  0  0  0  0  0  0
   69.3499  152.1039  -50.8540 O   0  0  0  0  0  0  0  0  0  0  0  0
   60.8824  155.0889  -43.1059 O   0  0  0  0  0  0  0  0  0  0  0  0
   66.5312  152.8591  -48.1689 S   0  0  0  0  0  0  0  0  0  0  0  0
   63.9472  155.2147  -49.0368 H   0  0  0  0  0  0  0  0  0  0  0  0
   66.9541  154.3075  -52.5157 H   0  0  0  0  0  0  0  0  0  0  0  0
   68.2200  153.1851  -52.0517 H   0  0  0  0  0  0  0  0  0  0  0  0
   67.2005  150.0608  -48.3710 H   0  0  0  0  0  0  0  0  0  0  0  0
   68.1925  148.4587  -46.7524 H   0  0  0  0  0  0  0  0  0  0  0  0
   70.6292  148.5216  -46.3467 H   0  0  0  0  0  0  0  0  0  0  0  0
   71.1345  151.5764  -49.0510 H   0  0  0  0  0  0  0  0  0  0  0  0
   62.8047  156.3106  -47.3474 H   0  0  0  0  0  0  0  0  0  0  0  0
   61.6189  156.1298  -45.2044 H   0  0  0  0  0  0  0  0  0  0  0  0
   63.2967  152.2511  -44.6197 H   0  0  0  0  0  0  0  0  0  0  0  0
   64.4495  152.3996  -46.7339 H   0  0  0  0  0  0  0  0  0  0  0  0
   62.0362  152.1751  -43.0128 H   0  0  0  0  0  0  0  0  0  0  0  0
   61.3774  153.1334  -41.7226 H   0  0  0  0  0  0  0  0  0  0  0  0
  1  6  1  0
  1  7  1  0
  1 25  1  0
  2  7  2  0
  2  8  1  0
  3  8  1  0
  3 26  1  0
  3 27  1  0
  4 14  2  0
  4 15  1  0
  5 21  1  0
  5 36  1  0
  5 37  1  0
  6 16  2  0
  6 20  1  0
  7 24  1  0
  8  9  2  0
  9 24  1  0
 10  9  1  0
 10 11  1  0
 10 22  2  0
 11 12  1  0
 11 15  2  0
 12 13  2  0
 12 28  1  0
 13 14  1  0
 13 29  1  0
 14 30  1  0
 15 31  1  0
 16 17  1  0
 16 32  1  0
 17 18  2  0
 17 33  1  0
 18 19  1  0
 18 21  1  0
 19 20  2  0
 19 34  1  0
 20 35  1  0
 21 23  2  0
M  END
>  <lm5_entropy_jk>  (1) 
19.089102203703476

>  <number_of_rotatable_bonds>  (1) 
5

>  <IC50_NM>  (1) 
200

>  <charge>  (1) 
0

$$$$
