3S0O
     RDKit          3D

 30 31  0  0  1  0  0  0  0  0999 V2000
   65.7807  154.5856  -50.2473 N   0  0  0  0  0  0  0  0  0  0  0  0
   67.4010  153.5193  -51.5391 N   0  0  0  0  0  0  0  0  0  0  0  0
   67.9201  151.6423  -46.7553 N   0  0  0  0  0  0  0  0  0  0  0  0
   64.3085  155.3817  -48.6296 N   0  0  0  0  0  0  0  0  0  0  0  0
   66.7949  153.6764  -50.3600 C   0  0  0  0  0  0  0  0  0  0  0  0
   67.1348  152.9674  -49.2047 C   0  0  0  0  0  0  0  0  0  0  0  0
   68.1633  151.9826  -49.1467 C   0  0  0  0  0  0  0  0  0  0  0  0
   68.2908  151.1196  -47.9195 C   0  0  0  0  0  0  0  0  0  0  0  0
   67.9489  150.8489  -45.6855 C   0  0  0  0  0  0  0  0  0  0  0  0
   68.4040  149.5404  -45.7346 C   0  0  0  0  0  0  0  0  0  0  0  0
   68.8343  149.0242  -46.9444 C   0  0  0  0  0  0  0  0  0  0  0  0
   68.7800  149.8306  -48.0659 C   0  0  0  0  0  0  0  0  0  0  0  0
   65.2600  154.5181  -49.0370 C   0  0  0  0  0  0  0  0  0  0  0  0
   63.6579  155.3299  -47.3297 C   0  0  0  0  0  0  0  0  0  0  0  0
   62.7511  154.1527  -47.1206 C   0  0  0  0  0  0  0  0  0  0  0  0
   62.6126  153.5639  -45.9476 C   0  0  0  0  0  0  0  0  0  0  0  0
   68.9442  151.7894  -50.0857 O   0  0  0  0  0  0  0  0  0  0  0  0
   65.9329  153.3310  -47.9716 S   0  0  0  0  0  0  0  0  0  0  0  0
   67.0715  154.0235  -52.3406 H   0  0  0  0  0  0  0  0  0  0  0  0
   68.1601  152.8552  -51.5704 H   0  0  0  0  0  0  0  0  0  0  0  0
   67.6161  151.2947  -44.7572 H   0  0  0  0  0  0  0  0  0  0  0  0
   68.3954  148.9314  -44.8445 H   0  0  0  0  0  0  0  0  0  0  0  0
   69.1800  148.0020  -47.0049 H   0  0  0  0  0  0  0  0  0  0  0  0
   69.0655  149.4759  -49.0399 H   0  0  0  0  0  0  0  0  0  0  0  0
   63.8366  155.8763  -49.3673 H   0  0  0  0  0  0  0  0  0  0  0  0
   63.0939  156.2539  -47.2251 H   0  0  0  0  0  0  0  0  0  0  0  0
   64.4122  155.3402  -46.5439 H   0  0  0  0  0  0  0  0  0  0  0  0
   62.1945  153.8127  -47.9832 H   0  0  0  0  0  0  0  0  0  0  0  0
   63.1652  153.8921  -45.0775 H   0  0  0  0  0  0  0  0  0  0  0  0
   61.9526  152.7247  -45.7925 H   0  0  0  0  0  0  0  0  0  0  0  0
  1  5  1  0
  1 13  2  0
  2  5  1  0
  2 19  1  0
  2 20  1  0
  3  8  2  0
  3  9  1  0
  4 13  1  0
  4 14  1  0
  4 25  1  0
  5  6  2  0
  6 18  1  0
  7  6  1  0
  7  8  1  0
  7 17  2  0
  8 12  1  0
  9 10  2  0
  9 21  1  0
 10 11  1  0
 10 22  1  0
 11 12  2  0
 11 23  1  0
 12 24  1  0
 13 18  1  0
 14 15  1  0
 14 26  1  0
 14 27  1  0
 15 16  2  0
 15 28  1  0
 16 29  1  0
 16 30  1  0
M  END
>  <lm5_entropy_jk>  (1) 
21.884956070842478

>  <number_of_rotatable_bonds>  (1) 
5

>  <IC50_NM>  (1) 
33000

>  <charge>  (1) 
0

$$$$
