3R8V
     RDKit          3D

 33 34  0  0  1  0  0  0  0  0999 V2000
   65.7980  154.5679  -50.2361 N   0  0  0  0  0  0  0  0  0  0  0  0
   67.4450  153.5086  -51.4909 N   0  0  0  0  0  0  0  0  0  0  0  0
   64.2825  155.3369  -48.6418 N   0  0  0  0  0  0  0  0  0  0  0  0
   67.8309  150.7902  -44.2109 N   0  0  0  0  0  0  0  0  0  0  0  0
   66.8256  153.6710  -50.3203 C   0  0  0  0  0  0  0  0  0  0  0  0
   67.1442  152.9712  -49.1533 C   0  0  0  0  0  0  0  0  0  0  0  0
   68.1906  152.0093  -49.0655 C   0  0  0  0  0  0  0  0  0  0  0  0
   68.2232  151.0486  -47.9064 C   0  0  0  0  0  0  0  0  0  0  0  0
   68.0379  151.4045  -46.5775 C   0  0  0  0  0  0  0  0  0  0  0  0
   67.9970  150.4065  -45.6239 C   0  0  0  0  0  0  0  0  0  0  0  0
   68.0795  149.0664  -45.9426 C   0  0  0  0  0  0  0  0  0  0  0  0
   68.3075  148.7291  -47.2652 C   0  0  0  0  0  0  0  0  0  0  0  0
   68.3972  149.7100  -48.2342 C   0  0  0  0  0  0  0  0  0  0  0  0
   65.2464  154.4917  -49.0435 C   0  0  0  0  0  0  0  0  0  0  0  0
   63.6560  155.2762  -47.3322 C   0  0  0  0  0  0  0  0  0  0  0  0
   62.7739  154.0839  -47.0940 C   0  0  0  0  0  0  0  0  0  0  0  0
   62.6082  153.5370  -45.9032 C   0  0  0  0  0  0  0  0  0  0  0  0
   69.0362  151.8827  -49.9550 O   0  0  0  0  0  0  0  0  0  0  0  0
   68.3704  151.8189  -43.8565 O   0  0  0  0  0  0  0  0  0  0  0  0
   67.1876  150.0519  -43.4963 O   0  0  0  0  0  0  0  0  0  0  0  0
   65.8882  153.2939  -47.9718 S   0  0  0  0  0  0  0  0  0  0  0  0
   67.1317  154.0226  -52.2949 H   0  0  0  0  0  0  0  0  0  0  0  0
   68.2425  152.8936  -51.5040 H   0  0  0  0  0  0  0  0  0  0  0  0
   67.9207  152.4259  -46.2601 H   0  0  0  0  0  0  0  0  0  0  0  0
   67.9657  148.3091  -45.1815 H   0  0  0  0  0  0  0  0  0  0  0  0
   68.3787  147.6908  -47.5399 H   0  0  0  0  0  0  0  0  0  0  0  0
   68.5660  149.4460  -49.2645 H   0  0  0  0  0  0  0  0  0  0  0  0
   63.7971  155.8359  -49.3673 H   0  0  0  0  0  0  0  0  0  0  0  0
   63.0803  156.1926  -47.2175 H   0  0  0  0  0  0  0  0  0  0  0  0
   64.4297  155.3029  -46.5669 H   0  0  0  0  0  0  0  0  0  0  0  0
   61.9559  152.6932  -45.7411 H   0  0  0  0  0  0  0  0  0  0  0  0
   63.1190  153.9053  -45.0241 H   0  0  0  0  0  0  0  0  0  0  0  0
   62.2492  153.6893  -47.9518 H   0  0  0  0  0  0  0  0  0  0  0  0
  1  5  1  0
  1 14  2  0
  2  5  1  0
  2 22  1  0
  2 23  1  0
  3 14  1  0
  3 15  1  0
  3 28  1  0
  4 10  1  0
  4 19  1  0
  4 20  2  0
  5  6  2  0
  6 21  1  0
  7  6  1  0
  7  8  1  0
  7 18  2  0
  8  9  2  0
  8 13  1  0
  9 10  1  0
  9 24  1  0
 10 11  2  0
 11 12  1  0
 11 25  1  0
 12 13  2  0
 12 26  1  0
 13 27  1  0
 14 21  1  0
 15 16  1  0
 15 29  1  0
 15 30  1  0
 16 17  2  0
 16 33  1  0
 17 31  1  0
 17 32  1  0
M  CHG  2   4   1  19  -1
M  END
>  <lm5_entropy_jk>  (1) 
33.50945403317048

>  <number_of_rotatable_bonds>  (1) 
6

>  <IC50_NM>  (1) 
2900

>  <charge>  (1) 
0

$$$$
