3RK5
     RDKit          3D

 35 37  0  0  1  0  0  0  0  0999 V2000
   64.4351  154.7341  -48.7627 N   0  0  0  0  0  0  0  0  0  0  0  0
   65.9263  154.0489  -50.3979 N   0  0  0  0  0  0  0  0  0  0  0  0
   67.6042  153.1561  -51.7547 N   0  0  0  0  0  0  0  0  0  0  0  0
   70.4879  149.5627  -47.0049 N   0  0  0  0  0  0  0  0  0  0  0  0
   63.5389  154.5189  -47.7015 C   0  0  0  0  0  0  0  0  0  0  0  0
   65.4614  153.9587  -49.1725 C   0  0  0  0  0  0  0  0  0  0  0  0
   67.0099  153.2240  -50.5684 C   0  0  0  0  0  0  0  0  0  0  0  0
   67.4084  152.4937  -49.4409 C   0  0  0  0  0  0  0  0  0  0  0  0
   68.5225  151.5991  -49.4394 C   0  0  0  0  0  0  0  0  0  0  0  0
   68.8021  150.6644  -48.2947 C   0  0  0  0  0  0  0  0  0  0  0  0
   67.8092  149.9675  -47.6156 C   0  0  0  0  0  0  0  0  0  0  0  0
   68.1741  149.0625  -46.6372 C   0  0  0  0  0  0  0  0  0  0  0  0
   69.5228  148.8985  -46.3666 C   0  0  0  0  0  0  0  0  0  0  0  0
   70.1248  150.4095  -47.9706 C   0  0  0  0  0  0  0  0  0  0  0  0
   62.8480  155.6312  -47.2239 C   0  0  0  0  0  0  0  0  0  0  0  0
   61.8615  155.4814  -46.2740 C   0  0  0  0  0  0  0  0  0  0  0  0
   61.5507  154.2245  -45.7760 C   0  0  0  0  0  0  0  0  0  0  0  0
   62.2732  153.1256  -46.2151 C   0  0  0  0  0  0  0  0  0  0  0  0
   63.2633  153.2601  -47.1761 C   0  0  0  0  0  0  0  0  0  0  0  0
   60.3320  154.0500  -44.8927 C   0  0  0  0  0  0  0  0  0  0  0  0
   69.2954  151.5547  -50.4029 O   0  0  0  0  0  0  0  0  0  0  0  0
   59.7313  155.1090  -44.5449 O   0  0  0  0  0  0  0  0  0  0  0  0
   59.9813  152.8865  -44.6254 O   0  0  0  0  0  0  0  0  0  0  0  0
   66.3258  152.8678  -48.1212 S   0  0  0  0  0  0  0  0  0  0  0  0
   64.1283  155.4579  -49.4082 H   0  0  0  0  0  0  0  0  0  0  0  0
   67.2934  153.7380  -52.5196 H   0  0  0  0  0  0  0  0  0  0  0  0
   68.4345  152.5850  -51.7954 H   0  0  0  0  0  0  0  0  0  0  0  0
   66.7686  150.0938  -47.8775 H   0  0  0  0  0  0  0  0  0  0  0  0
   67.4300  148.4714  -46.1292 H   0  0  0  0  0  0  0  0  0  0  0  0
   69.8400  148.1856  -45.6169 H   0  0  0  0  0  0  0  0  0  0  0  0
   70.9050  150.9112  -48.5273 H   0  0  0  0  0  0  0  0  0  0  0  0
   63.0377  156.5945  -47.6610 H   0  0  0  0  0  0  0  0  0  0  0  0
   61.2705  156.3186  -45.9410 H   0  0  0  0  0  0  0  0  0  0  0  0
   62.0155  152.1505  -45.8340 H   0  0  0  0  0  0  0  0  0  0  0  0
   63.7617  152.3827  -47.5534 H   0  0  0  0  0  0  0  0  0  0  0  0
  1  5  1  0
  1  6  1  0
  1 25  1  0
  2  6  2  0
  2  7  1  0
  3  7  1  0
  3 26  1  0
  3 27  1  0
  4 13  2  0
  4 14  1  0
  5 15  2  0
  5 19  1  0
  6 24  1  0
  7  8  2  0
  8 24  1  0
  9  8  1  0
  9 10  1  0
  9 21  2  0
 10 11  1  0
 10 14  2  0
 11 12  2  0
 11 28  1  0
 12 13  1  0
 12 29  1  0
 13 30  1  0
 14 31  1  0
 15 16  1  0
 15 32  1  0
 16 17  2  0
 16 33  1  0
 17 18  1  0
 17 20  1  0
 18 19  2  0
 18 34  1  0
 19 35  1  0
 20 22  2  0
 20 23  1  0
M  CHG  1  23  -1
M  END
>  <lm5_entropy_jk>  (1) 
20.582349174783765

>  <number_of_rotatable_bonds>  (1) 
5

>  <IC50_NM>  (1) 
4000

>  <charge>  (1) 
-1

$$$$
