3R8V
     RDKit          3D

 33 34  0  0  1  0  0  0  0  0999 V2000
   65.4431  154.3837  -50.5568 N   0  0  0  0  0  0  0  0  0  0  0  0
   67.2454  153.3909  -51.6593 N   0  0  0  0  0  0  0  0  0  0  0  0
   63.7444  155.0896  -49.1314 N   0  0  0  0  0  0  0  0  0  0  0  0
   68.1698  151.4034  -44.2139 N   0  0  0  0  0  0  0  0  0  0  0  0
   66.5365  153.5643  -50.5467 C   0  0  0  0  0  0  0  0  0  0  0  0
   66.8150  152.9403  -49.3240 C   0  0  0  0  0  0  0  0  0  0  0  0
   67.8327  151.9629  -49.1646 C   0  0  0  0  0  0  0  0  0  0  0  0
   67.8942  151.1443  -47.9040 C   0  0  0  0  0  0  0  0  0  0  0  0
   67.9544  151.6951  -46.6361 C   0  0  0  0  0  0  0  0  0  0  0  0
   68.0244  150.8308  -45.5569 C   0  0  0  0  0  0  0  0  0  0  0  0
   67.9875  149.4559  -45.6900 C   0  0  0  0  0  0  0  0  0  0  0  0
   67.9156  148.9164  -46.9618 C   0  0  0  0  0  0  0  0  0  0  0  0
   67.8998  149.7611  -48.0557 C   0  0  0  0  0  0  0  0  0  0  0  0
   64.8256  154.3569  -49.3921 C   0  0  0  0  0  0  0  0  0  0  0  0
   63.0456  155.0983  -47.8609 C   0  0  0  0  0  0  0  0  0  0  0  0
   62.3378  153.8057  -47.5636 C   0  0  0  0  0  0  0  0  0  0  0  0
   62.4535  153.1541  -46.4186 C   0  0  0  0  0  0  0  0  0  0  0  0
   68.6320  151.6990  -50.0688 O   0  0  0  0  0  0  0  0  0  0  0  0
   68.1103  152.6152  -44.0962 O   0  0  0  0  0  0  0  0  0  0  0  0
   68.3617  150.6494  -43.2804 O   0  0  0  0  0  0  0  0  0  0  0  0
   65.5205  153.2961  -48.1979 S   0  0  0  0  0  0  0  0  0  0  0  0
   67.0273  153.9041  -52.5021 H   0  0  0  0  0  0  0  0  0  0  0  0
   68.0365  152.7700  -51.5830 H   0  0  0  0  0  0  0  0  0  0  0  0
   67.9959  152.7580  -46.4665 H   0  0  0  0  0  0  0  0  0  0  0  0
   68.0177  148.8252  -44.8177 H   0  0  0  0  0  0  0  0  0  0  0  0
   67.8804  147.8445  -47.0745 H   0  0  0  0  0  0  0  0  0  0  0  0
   67.8768  149.3591  -49.0541 H   0  0  0  0  0  0  0  0  0  0  0  0
   63.4442  155.7721  -49.8229 H   0  0  0  0  0  0  0  0  0  0  0  0
   62.3092  155.8955  -47.9393 H   0  0  0  0  0  0  0  0  0  0  0  0
   63.7201  155.3494  -47.0424 H   0  0  0  0  0  0  0  0  0  0  0  0
   61.9091  152.2458  -46.2110 H   0  0  0  0  0  0  0  0  0  0  0  0
   63.1093  153.5179  -45.6367 H   0  0  0  0  0  0  0  0  0  0  0  0
   61.6980  153.4461  -48.3619 H   0  0  0  0  0  0  0  0  0  0  0  0
  1  5  1  0
  1 14  2  0
  2  5  1  0
  2 22  1  0
  2 23  1  0
  3 14  1  0
  3 15  1  0
  3 28  1  0
  4 10  1  0
  4 19  1  0
  4 20  2  0
  5  6  2  0
  6 21  1  0
  7  6  1  0
  7  8  1  0
  7 18  2  0
  8  9  2  0
  8 13  1  0
  9 10  1  0
  9 24  1  0
 10 11  2  0
 11 12  1  0
 11 25  1  0
 12 13  2  0
 12 26  1  0
 13 27  1  0
 14 21  1  0
 15 16  1  0
 15 29  1  0
 15 30  1  0
 16 17  2  0
 16 33  1  0
 17 31  1  0
 17 32  1  0
M  CHG  2   4   1  19  -1
M  END
>  <lm5_entropy_jk>  (1) 
33.50945403317048

>  <number_of_rotatable_bonds>  (1) 
6

>  <IC50_NM>  (1) 
2900

>  <charge>  (1) 
0

$$$$
