3QTS
     RDKit          3D

 38 40  0  0  1  0  0  0  0  0999 V2000
   65.7140  154.2990  -50.0729 N   0  0  0  0  0  0  0  0  0  0  0  0
   67.4118  153.5297  -51.5131 N   0  0  0  0  0  0  0  0  0  0  0  0
   64.0820  154.6324  -48.4011 N   0  0  0  0  0  0  0  0  0  0  0  0
   68.5810  149.3700  -45.5998 C   0  0  0  0  0  0  0  0  0  0  0  0
   68.3119  150.7209  -45.4337 C   0  0  0  0  0  0  0  0  0  0  0  0
   68.3083  151.5589  -46.5407 C   0  0  0  0  0  0  0  0  0  0  0  0
   68.8261  149.7286  -47.9849 C   0  0  0  0  0  0  0  0  0  0  0  0
   68.8434  148.8977  -46.8795 C   0  0  0  0  0  0  0  0  0  0  0  0
   67.7843  150.5556  -43.1063 C   0  0  0  0  0  0  0  0  0  0  0  0
   68.5413  151.0776  -47.8183 C   0  0  0  0  0  0  0  0  0  0  0  0
   68.4677  151.9746  -49.0414 C   0  0  0  0  0  0  0  0  0  0  0  0
   67.2821  152.7792  -49.2017 C   0  0  0  0  0  0  0  0  0  0  0  0
   66.8422  153.5372  -50.2883 C   0  0  0  0  0  0  0  0  0  0  0  0
   65.1920  154.0110  -48.8966 C   0  0  0  0  0  0  0  0  0  0  0  0
   63.3658  154.4623  -47.1889 C   0  0  0  0  0  0  0  0  0  0  0  0
   63.4644  153.3583  -46.3490 C   0  0  0  0  0  0  0  0  0  0  0  0
   62.7693  153.3215  -45.1484 C   0  0  0  0  0  0  0  0  0  0  0  0
   61.9211  154.3465  -44.7789 C   0  0  0  0  0  0  0  0  0  0  0  0
   61.7692  155.4229  -45.6396 C   0  0  0  0  0  0  0  0  0  0  0  0
   62.4841  155.4833  -46.8214 C   0  0  0  0  0  0  0  0  0  0  0  0
   69.4025  151.9954  -49.8323 O   0  0  0  0  0  0  0  0  0  0  0  0
   68.0673  151.3449  -44.2503 O   0  0  0  0  0  0  0  0  0  0  0  0
   66.0487  152.8493  -47.9668 S   0  0  0  0  0  0  0  0  0  0  0  0
   68.5776  148.6806  -44.7683 H   0  0  0  0  0  0  0  0  0  0  0  0
   67.0749  154.1052  -52.2807 H   0  0  0  0  0  0  0  0  0  0  0  0
   68.2636  153.0244  -51.6691 H   0  0  0  0  0  0  0  0  0  0  0  0
   68.1184  152.5972  -46.3419 H   0  0  0  0  0  0  0  0  0  0  0  0
   63.5989  155.2215  -49.0697 H   0  0  0  0  0  0  0  0  0  0  0  0
   68.9931  149.3299  -48.9698 H   0  0  0  0  0  0  0  0  0  0  0  0
   69.0575  147.8478  -47.0044 H   0  0  0  0  0  0  0  0  0  0  0  0
   67.4082  151.2442  -42.3570 H   0  0  0  0  0  0  0  0  0  0  0  0
   68.6791  150.0670  -42.7192 H   0  0  0  0  0  0  0  0  0  0  0  0
   67.0204  149.8014  -43.3032 H   0  0  0  0  0  0  0  0  0  0  0  0
   64.0597  152.5029  -46.6095 H   0  0  0  0  0  0  0  0  0  0  0  0
   62.8949  152.4634  -44.5017 H   0  0  0  0  0  0  0  0  0  0  0  0
   61.3902  154.2965  -43.8417 H   0  0  0  0  0  0  0  0  0  0  0  0
   61.0927  156.2250  -45.3862 H   0  0  0  0  0  0  0  0  0  0  0  0
   62.3456  156.3281  -47.4786 H   0  0  0  0  0  0  0  0  0  0  0  0
  1 13  1  0
  1 14  2  0
  2 13  1  0
  2 25  1  0
  2 26  1  0
  3 14  1  0
  3 15  1  0
  3 28  1  0
  4  5  2  0
  4  8  1  0
  4 24  1  0
  5  6  1  0
  5 22  1  0
  6 10  2  0
  6 27  1  0
  7  8  2  0
  7 10  1  0
  7 29  1  0
  8 30  1  0
  9 22  1  0
  9 31  1  0
  9 32  1  0
  9 33  1  0
 11 10  1  0
 11 12  1  0
 11 21  2  0
 12 13  2  0
 12 23  1  0
 14 23  1  0
 15 16  2  0
 15 20  1  0
 16 17  1  0
 16 34  1  0
 17 18  2  0
 17 35  1  0
 18 19  1  0
 18 36  1  0
 19 20  2  0
 19 37  1  0
 20 38  1  0
M  END
>  <lm5_entropy_jk>  (1) 
31.97375871552738

>  <number_of_rotatable_bonds>  (1) 
5

>  <IC50_NM>  (1) 
3100

>  <charge>  (1) 
0

$$$$
