3RAH
     RDKit          3D

 46 49  0  0  1  0  0  0  0  0999 V2000
   65.5509  154.5751  -50.0209 N   0  0  0  0  0  0  0  0  0  0  0  0
   64.1438  155.2910  -48.2566 N   0  0  0  0  0  0  0  0  0  0  0  0
   67.1200  153.5352  -51.4034 N   0  0  0  0  0  0  0  0  0  0  0  0
   68.4641  149.2067  -45.6788 C   0  0  0  0  0  0  0  0  0  0  0  0
   68.7193  148.7815  -47.0044 C   0  0  0  0  0  0  0  0  0  0  0  0
   68.5140  149.6184  -48.0608 C   0  0  0  0  0  0  0  0  0  0  0  0
   67.7892  151.3664  -46.5820 C   0  0  0  0  0  0  0  0  0  0  0  0
   67.9792  150.5143  -45.4704 C   0  0  0  0  0  0  0  0  0  0  0  0
   68.6934  148.3741  -44.5517 C   0  0  0  0  0  0  0  0  0  0  0  0
   68.4551  148.8362  -43.2889 C   0  0  0  0  0  0  0  0  0  0  0  0
   67.9624  150.1455  -43.0839 C   0  0  0  0  0  0  0  0  0  0  0  0
   67.7193  150.9610  -44.1509 C   0  0  0  0  0  0  0  0  0  0  0  0
   68.0319  150.9325  -47.8603 C   0  0  0  0  0  0  0  0  0  0  0  0
   67.8249  151.7862  -49.0856 C   0  0  0  0  0  0  0  0  0  0  0  0
   66.8653  152.8481  -49.0925 C   0  0  0  0  0  0  0  0  0  0  0  0
   66.5433  153.6482  -50.2035 C   0  0  0  0  0  0  0  0  0  0  0  0
   65.0614  154.4820  -48.7921 C   0  0  0  0  0  0  0  0  0  0  0  0
   63.5567  155.0572  -46.9386 C   0  0  0  0  0  0  0  0  0  0  0  0
   62.5371  153.9155  -46.9117 C   0  0  0  0  0  0  0  0  0  0  0  0
   62.0309  153.6933  -45.4890 C   0  0  0  0  0  0  0  0  0  0  0  0
   61.3967  154.9620  -44.9274 C   0  0  0  0  0  0  0  0  0  0  0  0
   62.3785  156.1312  -45.0014 C   0  0  0  0  0  0  0  0  0  0  0  0
   62.8937  156.3313  -46.4246 C   0  0  0  0  0  0  0  0  0  0  0  0
   68.4818  151.5288  -50.1020 O   0  0  0  0  0  0  0  0  0  0  0  0
   65.7440  153.2237  -47.8101 S   0  0  0  0  0  0  0  0  0  0  0  0
   69.0716  147.7727  -47.1468 H   0  0  0  0  0  0  0  0  0  0  0  0
   68.7128  149.3021  -49.0698 H   0  0  0  0  0  0  0  0  0  0  0  0
   63.5679  155.8057  -48.9146 H   0  0  0  0  0  0  0  0  0  0  0  0
   67.4812  152.3770  -46.3785 H   0  0  0  0  0  0  0  0  0  0  0  0
   66.8652  154.1468  -52.1637 H   0  0  0  0  0  0  0  0  0  0  0  0
   67.8550  152.8499  -51.4772 H   0  0  0  0  0  0  0  0  0  0  0  0
   69.0341  147.3614  -44.7157 H   0  0  0  0  0  0  0  0  0  0  0  0
   68.6286  148.1970  -42.4327 H   0  0  0  0  0  0  0  0  0  0  0  0
   67.7784  150.4765  -42.0714 H   0  0  0  0  0  0  0  0  0  0  0  0
   67.3241  151.9589  -44.0188 H   0  0  0  0  0  0  0  0  0  0  0  0
   64.3711  154.8093  -46.2567 H   0  0  0  0  0  0  0  0  0  0  0  0
   62.9723  153.0032  -47.3116 H   0  0  0  0  0  0  0  0  0  0  0  0
   61.7112  154.1916  -47.5714 H   0  0  0  0  0  0  0  0  0  0  0  0
   62.8699  153.4036  -44.8505 H   0  0  0  0  0  0  0  0  0  0  0  0
   61.3261  152.8675  -45.4518 H   0  0  0  0  0  0  0  0  0  0  0  0
   61.0740  154.7944  -43.8987 H   0  0  0  0  0  0  0  0  0  0  0  0
   60.5077  155.2140  -45.5112 H   0  0  0  0  0  0  0  0  0  0  0  0
   61.9027  157.0468  -44.6520 H   0  0  0  0  0  0  0  0  0  0  0  0
   63.2240  155.9361  -44.3366 H   0  0  0  0  0  0  0  0  0  0  0  0
   62.0605  156.5830  -47.0850 H   0  0  0  0  0  0  0  0  0  0  0  0
   63.6032  157.1570  -46.4563 H   0  0  0  0  0  0  0  0  0  0  0  0
  1 17  2  0
  2 18  1  0
  2 28  1  0
  3 16  1  0
  3 30  1  0
  3 31  1  0
  4  9  1  0
  5  4  2  0
  5 26  1  0
  6  5  1  0
  6 27  1  0
  7  8  2  0
  7 29  1  0
  8  4  1  0
  8 12  1  0
  9 10  2  0
  9 32  1  0
 10 33  1  0
 11 10  1  0
 11 34  1  0
 12 11  2  0
 12 35  1  0
 13  6  2  0
 13  7  1  0
 14 13  1  0
 14 24  2  0
 15 14  1  0
 15 25  1  0
 16  1  1  0
 16 15  2  0
 17  2  1  0
 17 25  1  0
 18 23  1  0
 18 36  1  0
 19 18  1  0
 19 20  1  0
 19 37  1  0
 19 38  1  0
 20 21  1  0
 20 39  1  0
 20 40  1  0
 21 41  1  0
 21 42  1  0
 22 21  1  0
 22 43  1  0
 22 44  1  0
 23 22  1  0
 23 45  1  0
 23 46  1  0
M  END
>  <lm5_entropy_jk>  (1) 
20.76925268888156

>  <number_of_rotatable_bonds>  (1) 
4

>  <IC50_NM>  (1) 
12000

>  <charge>  (1) 
0

$$$$
