3QTS
     RDKit          3D

 38 40  0  0  1  0  0  0  0  0999 V2000
   65.4663  154.2247  -50.3541 N   0  0  0  0  0  0  0  0  0  0  0  0
   67.3138  153.5360  -51.6202 N   0  0  0  0  0  0  0  0  0  0  0  0
   63.7506  154.5736  -48.8178 N   0  0  0  0  0  0  0  0  0  0  0  0
   69.0511  149.7013  -45.7562 C   0  0  0  0  0  0  0  0  0  0  0  0
   68.5992  151.0103  -45.6285 C   0  0  0  0  0  0  0  0  0  0  0  0
   68.3361  151.7684  -46.7658 C   0  0  0  0  0  0  0  0  0  0  0  0
   68.9730  149.9126  -48.1566 C   0  0  0  0  0  0  0  0  0  0  0  0
   69.2314  149.1633  -47.0244 C   0  0  0  0  0  0  0  0  0  0  0  0
   68.6593  150.9270  -43.2589 C   0  0  0  0  0  0  0  0  0  0  0  0
   68.5068  151.2154  -48.0239 C   0  0  0  0  0  0  0  0  0  0  0  0
   68.2042  151.9882  -49.2741 C   0  0  0  0  0  0  0  0  0  0  0  0
   67.0582  152.8364  -49.3290 C   0  0  0  0  0  0  0  0  0  0  0  0
   66.6430  153.5310  -50.4719 C   0  0  0  0  0  0  0  0  0  0  0  0
   64.9132  154.0032  -49.1763 C   0  0  0  0  0  0  0  0  0  0  0  0
   63.0258  154.3944  -47.6224 C   0  0  0  0  0  0  0  0  0  0  0  0
   63.0277  153.2121  -46.8828 C   0  0  0  0  0  0  0  0  0  0  0  0
   62.2704  153.1225  -45.7242 C   0  0  0  0  0  0  0  0  0  0  0  0
   61.4841  154.1816  -45.3047 C   0  0  0  0  0  0  0  0  0  0  0  0
   61.4534  155.3420  -46.0630 C   0  0  0  0  0  0  0  0  0  0  0  0
   62.2209  155.4539  -47.2078 C   0  0  0  0  0  0  0  0  0  0  0  0
   68.9475  151.8522  -50.2521 O   0  0  0  0  0  0  0  0  0  0  0  0
   68.3942  151.6466  -44.4504 O   0  0  0  0  0  0  0  0  0  0  0  0
   65.8203  152.9820  -48.1086 S   0  0  0  0  0  0  0  0  0  0  0  0
   69.2458  149.0921  -44.8884 H   0  0  0  0  0  0  0  0  0  0  0  0
   66.9849  154.0389  -52.4338 H   0  0  0  0  0  0  0  0  0  0  0  0
   68.1384  152.9566  -51.6517 H   0  0  0  0  0  0  0  0  0  0  0  0
   68.0288  152.7916  -46.6284 H   0  0  0  0  0  0  0  0  0  0  0  0
   63.3544  155.2650  -49.4603 H   0  0  0  0  0  0  0  0  0  0  0  0
   69.1136  149.4979  -49.1413 H   0  0  0  0  0  0  0  0  0  0  0  0
   69.5472  148.1359  -47.1207 H   0  0  0  0  0  0  0  0  0  0  0  0
   68.3642  151.5625  -42.4387 H   0  0  0  0  0  0  0  0  0  0  0  0
   69.7212  150.7212  -43.1644 H   0  0  0  0  0  0  0  0  0  0  0  0
   68.0912  149.9982  -43.2129 H   0  0  0  0  0  0  0  0  0  0  0  0
   63.5686  152.3473  -47.2240 H   0  0  0  0  0  0  0  0  0  0  0  0
   62.2533  152.2002  -45.1664 H   0  0  0  0  0  0  0  0  0  0  0  0
   60.8749  154.0833  -44.4185 H   0  0  0  0  0  0  0  0  0  0  0  0
   60.7991  156.1560  -45.7902 H   0  0  0  0  0  0  0  0  0  0  0  0
   62.1632  156.3367  -47.8236 H   0  0  0  0  0  0  0  0  0  0  0  0
  1 13  1  0
  1 14  2  0
  2 13  1  0
  2 25  1  0
  2 26  1  0
  3 14  1  0
  3 15  1  0
  3 28  1  0
  4  5  2  0
  4  8  1  0
  4 24  1  0
  5  6  1  0
  5 22  1  0
  6 10  2  0
  6 27  1  0
  7  8  2  0
  7 10  1  0
  7 29  1  0
  8 30  1  0
  9 22  1  0
  9 31  1  0
  9 32  1  0
  9 33  1  0
 11 10  1  0
 11 12  1  0
 11 21  2  0
 12 13  2  0
 12 23  1  0
 14 23  1  0
 15 16  2  0
 15 20  1  0
 16 17  1  0
 16 34  1  0
 17 18  2  0
 17 35  1  0
 18 19  1  0
 18 36  1  0
 19 20  2  0
 19 37  1  0
 20 38  1  0
M  END
>  <lm5_entropy_jk>  (1) 
31.97375871552738

>  <number_of_rotatable_bonds>  (1) 
5

>  <IC50_NM>  (1) 
3100

>  <charge>  (1) 
0

$$$$
