3R8U
     RDKit          3D

 37 39  0  0  1  0  0  0  0  0999 V2000
   64.0718  155.2954  -48.8337 N   0  0  0  0  0  0  0  0  0  0  0  0
   65.6039  154.5503  -50.4290 N   0  0  0  0  0  0  0  0  0  0  0  0
   67.2632  153.5058  -51.6942 N   0  0  0  0  0  0  0  0  0  0  0  0
   62.6392  153.3068  -46.1595 C   0  0  0  0  0  0  0  0  0  0  0  0
   62.6384  153.9553  -47.3115 C   0  0  0  0  0  0  0  0  0  0  0  0
   63.4052  155.2288  -47.5477 C   0  0  0  0  0  0  0  0  0  0  0  0
   65.0608  154.4987  -49.2228 C   0  0  0  0  0  0  0  0  0  0  0  0
   66.9285  152.9283  -49.3622 C   0  0  0  0  0  0  0  0  0  0  0  0
   66.6328  153.6545  -50.5267 C   0  0  0  0  0  0  0  0  0  0  0  0
   67.8751  151.8626  -49.2895 C   0  0  0  0  0  0  0  0  0  0  0  0
   68.0355  151.0615  -48.0259 C   0  0  0  0  0  0  0  0  0  0  0  0
   68.0378  151.6115  -46.7712 C   0  0  0  0  0  0  0  0  0  0  0  0
   68.1998  150.7992  -45.6211 C   0  0  0  0  0  0  0  0  0  0  0  0
   68.3380  149.4023  -45.7808 C   0  0  0  0  0  0  0  0  0  0  0  0
   68.3383  148.8602  -47.0879 C   0  0  0  0  0  0  0  0  0  0  0  0
   68.2105  149.6675  -48.1767 C   0  0  0  0  0  0  0  0  0  0  0  0
   68.2502  151.3512  -44.3157 C   0  0  0  0  0  0  0  0  0  0  0  0
   68.4254  150.5466  -43.2268 C   0  0  0  0  0  0  0  0  0  0  0  0
   68.5380  149.1469  -43.3857 C   0  0  0  0  0  0  0  0  0  0  0  0
   68.4939  148.5862  -44.6291 C   0  0  0  0  0  0  0  0  0  0  0  0
   68.5409  151.5437  -50.2825 O   0  0  0  0  0  0  0  0  0  0  0  0
   65.7337  153.3164  -48.1446 S   0  0  0  0  0  0  0  0  0  0  0  0
   62.6989  156.0575  -47.5405 H   0  0  0  0  0  0  0  0  0  0  0  0
   64.1046  155.3942  -46.7292 H   0  0  0  0  0  0  0  0  0  0  0  0
   63.5945  155.8398  -49.5478 H   0  0  0  0  0  0  0  0  0  0  0  0
   67.0395  154.0892  -52.4878 H   0  0  0  0  0  0  0  0  0  0  0  0
   67.9971  152.8152  -51.7109 H   0  0  0  0  0  0  0  0  0  0  0  0
   67.9410  152.6774  -46.6297 H   0  0  0  0  0  0  0  0  0  0  0  0
   68.4432  147.7919  -47.1935 H   0  0  0  0  0  0  0  0  0  0  0  0
   68.2359  149.2614  -49.1712 H   0  0  0  0  0  0  0  0  0  0  0  0
   68.1637  152.4225  -44.2060 H   0  0  0  0  0  0  0  0  0  0  0  0
   68.4837  150.9560  -42.2270 H   0  0  0  0  0  0  0  0  0  0  0  0
   68.6581  148.5216  -42.5097 H   0  0  0  0  0  0  0  0  0  0  0  0
   68.5657  147.5153  -44.7614 H   0  0  0  0  0  0  0  0  0  0  0  0
   62.0357  152.4269  -45.9941 H   0  0  0  0  0  0  0  0  0  0  0  0
   63.2351  153.6569  -45.3227 H   0  0  0  0  0  0  0  0  0  0  0  0
   62.0397  153.6164  -48.1505 H   0  0  0  0  0  0  0  0  0  0  0  0
  1  6  1  0
  1  7  1  0
  1 25  1  0
  2  7  2  0
  2  9  1  0
  3  9  1  0
  3 26  1  0
  3 27  1  0
  4  5  2  0
  4 35  1  0
  4 36  1  0
  5  6  1  0
  5 37  1  0
  6 23  1  0
  6 24  1  0
  7 22  1  0
  8  9  2  0
  8 22  1  0
 10  8  1  0
 10 11  1  0
 10 21  2  0
 11 12  2  0
 11 16  1  0
 12 13  1  0
 12 28  1  0
 13 14  2  0
 13 17  1  0
 14 15  1  0
 14 20  1  0
 15 16  2  0
 15 29  1  0
 16 30  1  0
 17 18  2  0
 17 31  1  0
 18 19  1  0
 18 32  1  0
 19 20  2  0
 19 33  1  0
 20 34  1  0
M  END
>  <lm5_entropy_jk>  (1) 
31.97375871552738

>  <number_of_rotatable_bonds>  (1) 
5

>  <IC50_NM>  (1) 
5000

>  <charge>  (1) 
0

$$$$
