3RKB
     RDKit          3D

 39 41  0  0  0  0  0  0  0  0999 V2000
   67.3408  152.9534  -49.7446 C   0  0  0  0  0  0  0  0  0  0  0  0
   66.7856  153.7071  -50.7884 C   0  0  0  0  0  0  0  0  0  0  0  0
   65.7386  154.5380  -50.4642 N   0  0  0  0  0  0  0  0  0  0  0  0
   65.4157  154.3855  -49.1965 C   0  0  0  0  0  0  0  0  0  0  0  0
   66.3934  153.2562  -48.3074 S   0  0  0  0  0  0  0  0  0  0  0  0
   68.4273  152.0303  -49.8849 C   0  0  0  0  0  0  0  0  0  0  0  0
   67.2452  153.6492  -52.0453 N   0  0  0  0  0  0  0  0  0  0  0  0
   64.4639  155.1250  -48.5566 N   0  0  0  0  0  0  0  0  0  0  0  0
   69.0856  151.9489  -50.9251 O   0  0  0  0  0  0  0  0  0  0  0  0
   69.7604  149.3122  -46.9542 C   0  0  0  0  0  0  0  0  0  0  0  0
   70.6536  150.1327  -47.5305 N   0  0  0  0  0  0  0  0  0  0  0  0
   70.1654  151.0024  -48.4112 C   0  0  0  0  0  0  0  0  0  0  0  0
   68.8235  151.1213  -48.7523 C   0  0  0  0  0  0  0  0  0  0  0  0
   67.9208  150.2926  -48.1061 C   0  0  0  0  0  0  0  0  0  0  0  0
   68.4001  149.3709  -47.1928 C   0  0  0  0  0  0  0  0  0  0  0  0
   62.6702  153.4499  -45.5728 C   0  0  0  0  0  0  0  0  0  0  0  0
   63.1292  153.6174  -47.0216 C   0  0  0  0  0  0  0  0  0  0  0  0
   63.9566  154.8872  -47.1958 C   0  0  0  0  0  0  0  0  0  0  0  0
   63.1363  156.0910  -46.7239 C   0  0  0  0  0  0  0  0  0  0  0  0
   62.7018  155.9426  -45.2662 C   0  0  0  0  0  0  0  0  0  0  0  0
   61.9096  154.6617  -45.0499 C   0  0  0  0  0  0  0  0  0  0  0  0
   66.8784  154.2143  -52.8088 H   0  0  0  0  0  0  0  0  0  0  0  0
   68.0419  153.0715  -52.2441 H   0  0  0  0  0  0  0  0  0  0  0  0
   63.7429  155.4849  -49.1771 H   0  0  0  0  0  0  0  0  0  0  0  0
   70.1568  148.5867  -46.2595 H   0  0  0  0  0  0  0  0  0  0  0  0
   70.8855  151.6611  -48.8682 H   0  0  0  0  0  0  0  0  0  0  0  0
   66.8671  150.3306  -48.3260 H   0  0  0  0  0  0  0  0  0  0  0  0
   67.7228  148.6982  -46.6796 H   0  0  0  0  0  0  0  0  0  0  0  0
   63.5429  153.2730  -44.9418 H   0  0  0  0  0  0  0  0  0  0  0  0
   62.0552  152.5580  -45.4788 H   0  0  0  0  0  0  0  0  0  0  0  0
   63.7119  152.7499  -47.3178 H   0  0  0  0  0  0  0  0  0  0  0  0
   62.2652  153.6647  -47.6847 H   0  0  0  0  0  0  0  0  0  0  0  0
   64.8293  154.8128  -46.5595 H   0  0  0  0  0  0  0  0  0  0  0  0
   62.2445  156.1776  -47.3499 H   0  0  0  0  0  0  0  0  0  0  0  0
   63.6953  157.0117  -46.8418 H   0  0  0  0  0  0  0  0  0  0  0  0
   62.1084  156.8056  -44.9635 H   0  0  0  0  0  0  0  0  0  0  0  0
   63.5833  155.9399  -44.6231 H   0  0  0  0  0  0  0  0  0  0  0  0
   61.6794  154.5269  -43.9936 H   0  0  0  0  0  0  0  0  0  0  0  0
   60.9560  154.7485  -45.5692 H   0  0  0  0  0  0  0  0  0  0  0  0
  1  5  1  0
  2  3  1  0
  2  1  2  0
  3  4  2  0
  4  8  1  0
  4  5  1  0
  6  1  1  0
  6 13  1  0
  7  2  1  0
  7 22  1  0
  7 23  1  0
  8 18  1  0
  8 24  1  0
  9  6  2  0
 10 25  1  0
 11 10  2  0
 12 11  1  0
 12 26  1  0
 13 12  2  0
 13 14  1  0
 14 15  2  0
 14 27  1  0
 15 10  1  0
 15 28  1  0
 16 21  1  0
 16 29  1  0
 16 30  1  0
 17 16  1  0
 17 31  1  0
 17 32  1  0
 18 17  1  0
 18 19  1  0
 18 33  1  0
 19 20  1  0
 19 34  1  0
 19 35  1  0
 20 21  1  0
 20 36  1  0
 20 37  1  0
 21 38  1  0
 21 39  1  0
M  END
>  <lm5_entropy_jk>  (1) 
20.214453483104165

>  <number_of_rotatable_bonds>  (1) 
4

>  <IC50_NM>  (1) 
380

>  <charge>  (1) 
0

$$$$
