3RMF
     RDKit          3D

 45 48  0  0  0  0  0  0  0  0999 V2000
   65.7143  154.2379  -50.4335 N   0  0  0  0  0  0  0  0  0  0  0  0
   64.2402  154.7740  -48.7354 N   0  0  0  0  0  0  0  0  0  0  0  0
   67.2778  153.3586  -51.9151 N   0  0  0  0  0  0  0  0  0  0  0  0
   61.1993  153.2465  -42.9386 N   0  0  0  0  0  0  0  0  0  0  0  0
   67.3002  152.7047  -49.5937 C   0  0  0  0  0  0  0  0  0  0  0  0
   66.7983  153.4355  -50.6838 C   0  0  0  0  0  0  0  0  0  0  0  0
   65.3104  154.0878  -49.1909 C   0  0  0  0  0  0  0  0  0  0  0  0
   63.4699  154.5759  -47.5804 C   0  0  0  0  0  0  0  0  0  0  0  0
   68.3549  151.7493  -49.7093 C   0  0  0  0  0  0  0  0  0  0  0  0
   68.7677  150.8776  -48.5596 C   0  0  0  0  0  0  0  0  0  0  0  0
   70.1281  150.4837  -48.5357 C   0  0  0  0  0  0  0  0  0  0  0  0
   70.5927  149.6579  -47.5608 C   0  0  0  0  0  0  0  0  0  0  0  0
   69.7295  149.1688  -46.5531 C   0  0  0  0  0  0  0  0  0  0  0  0
   68.3687  149.5369  -46.5794 C   0  0  0  0  0  0  0  0  0  0  0  0
   67.9079  150.3882  -47.6123 C   0  0  0  0  0  0  0  0  0  0  0  0
   62.6178  155.6181  -47.2133 C   0  0  0  0  0  0  0  0  0  0  0  0
   61.7713  155.4878  -46.1339 C   0  0  0  0  0  0  0  0  0  0  0  0
   61.7821  154.3059  -45.4033 C   0  0  0  0  0  0  0  0  0  0  0  0
   62.6181  153.2580  -45.7587 C   0  0  0  0  0  0  0  0  0  0  0  0
   63.4644  153.3905  -46.8448 C   0  0  0  0  0  0  0  0  0  0  0  0
   70.1899  148.3040  -45.5327 C   0  0  0  0  0  0  0  0  0  0  0  0
   69.3397  147.8625  -44.5605 C   0  0  0  0  0  0  0  0  0  0  0  0
   67.9777  148.2404  -44.5799 C   0  0  0  0  0  0  0  0  0  0  0  0
   67.5003  149.0441  -45.5742 C   0  0  0  0  0  0  0  0  0  0  0  0
   68.9813  151.6225  -50.7718 O   0  0  0  0  0  0  0  0  0  0  0  0
   59.5614  153.1775  -44.7400 O   0  0  0  0  0  0  0  0  0  0  0  0
   60.1364  155.3522  -43.6987 O   0  0  0  0  0  0  0  0  0  0  0  0
   66.2778  153.0226  -48.2162 S   0  0  0  0  0  0  0  0  0  0  0  0
   60.5559  154.0541  -44.1703 S   0  0  0  0  0  0  0  0  0  0  0  0
   63.7968  155.3707  -49.4343 H   0  0  0  0  0  0  0  0  0  0  0  0
   66.9671  153.9847  -52.6414 H   0  0  0  0  0  0  0  0  0  0  0  0
   68.0844  152.7685  -52.0527 H   0  0  0  0  0  0  0  0  0  0  0  0
   61.3422  152.2529  -43.1469 H   0  0  0  0  0  0  0  0  0  0  0  0
   61.9646  153.7276  -42.4935 H   0  0  0  0  0  0  0  0  0  0  0  0
   70.7776  150.8333  -49.3232 H   0  0  0  0  0  0  0  0  0  0  0  0
   71.6228  149.3371  -47.5684 H   0  0  0  0  0  0  0  0  0  0  0  0
   66.8509  150.6069  -47.6488 H   0  0  0  0  0  0  0  0  0  0  0  0
   62.5879  156.5066  -47.8226 H   0  0  0  0  0  0  0  0  0  0  0  0
   61.0808  156.2772  -45.8843 H   0  0  0  0  0  0  0  0  0  0  0  0
   62.5689  152.3223  -45.2186 H   0  0  0  0  0  0  0  0  0  0  0  0
   64.0640  152.5488  -47.1439 H   0  0  0  0  0  0  0  0  0  0  0  0
   71.2225  147.9856  -45.5775 H   0  0  0  0  0  0  0  0  0  0  0  0
   69.6965  147.2189  -43.7679 H   0  0  0  0  0  0  0  0  0  0  0  0
   67.3158  147.8726  -43.8080 H   0  0  0  0  0  0  0  0  0  0  0  0
   66.4514  149.2955  -45.6215 H   0  0  0  0  0  0  0  0  0  0  0  0
  1  7  2  0
  2  8  1  0
  2 30  1  0
  3  6  1  0
  3 31  1  0
  3 32  1  0
  4 33  1  0
  4 34  1  0
  5 28  1  0
  6  1  1  0
  6  5  2  0
  7  2  1  0
  7 28  1  0
  8 16  2  0
  8 20  1  0
  9  5  1  0
  9 10  1  0
 10 11  2  0
 10 15  1  0
 11 12  1  0
 11 35  1  0
 12 13  2  0
 12 36  1  0
 13 21  1  0
 14 13  1  0
 14 24  1  0
 15 14  2  0
 15 37  1  0
 16 17  1  0
 16 38  1  0
 17 18  2  0
 17 39  1  0
 18 29  1  0
 19 18  1  0
 19 40  1  0
 20 19  2  0
 20 41  1  0
 21 22  2  0
 21 42  1  0
 22 43  1  0
 23 22  1  0
 23 44  1  0
 24 23  2  0
 24 45  1  0
 25  9  2  0
 26 29  2  0
 29 27  2  0
 29  4  1  0
M  END
>  <lm5_entropy_jk>  (1) 
22.397995528352578

>  <number_of_rotatable_bonds>  (1) 
5

>  <IC50_NM>  (1) 
82000

>  <charge>  (1) 
0

$$$$
