3RMF
     RDKit          3D

 45 48  0  0  0  0  0  0  0  0999 V2000
   65.7013  154.2193  -50.4483 N   0  0  0  0  0  0  0  0  0  0  0  0
   64.2217  154.7524  -48.7546 N   0  0  0  0  0  0  0  0  0  0  0  0
   67.2741  153.3491  -51.9259 N   0  0  0  0  0  0  0  0  0  0  0  0
   61.1924  153.2487  -42.9496 N   0  0  0  0  0  0  0  0  0  0  0  0
   67.2887  152.6939  -49.6048 C   0  0  0  0  0  0  0  0  0  0  0  0
   66.7891  153.4228  -50.6964 C   0  0  0  0  0  0  0  0  0  0  0  0
   65.2941  154.0692  -49.2070 C   0  0  0  0  0  0  0  0  0  0  0  0
   63.4586  154.5610  -47.5953 C   0  0  0  0  0  0  0  0  0  0  0  0
   68.3526  151.7494  -49.7152 C   0  0  0  0  0  0  0  0  0  0  0  0
   68.7662  150.8761  -48.5671 C   0  0  0  0  0  0  0  0  0  0  0  0
   70.1310  150.4960  -48.5378 C   0  0  0  0  0  0  0  0  0  0  0  0
   70.5984  149.6627  -47.5699 C   0  0  0  0  0  0  0  0  0  0  0  0
   69.7332  149.1496  -46.5748 C   0  0  0  0  0  0  0  0  0  0  0  0
   68.3693  149.5082  -46.6031 C   0  0  0  0  0  0  0  0  0  0  0  0
   67.9066  150.3707  -47.6274 C   0  0  0  0  0  0  0  0  0  0  0  0
   62.6035  155.6029  -47.2348 C   0  0  0  0  0  0  0  0  0  0  0  0
   61.7616  155.4765  -46.1523 C   0  0  0  0  0  0  0  0  0  0  0  0
   61.7802  154.3004  -45.4133 C   0  0  0  0  0  0  0  0  0  0  0  0
   62.6172  153.2513  -45.7622 C   0  0  0  0  0  0  0  0  0  0  0  0
   63.4604  153.3809  -46.8511 C   0  0  0  0  0  0  0  0  0  0  0  0
   70.1939  148.2668  -45.5694 C   0  0  0  0  0  0  0  0  0  0  0  0
   69.3399  147.7961  -44.6143 C   0  0  0  0  0  0  0  0  0  0  0  0
   67.9761  148.1660  -44.6332 C   0  0  0  0  0  0  0  0  0  0  0  0
   67.4992  148.9895  -45.6117 C   0  0  0  0  0  0  0  0  0  0  0  0
   68.9873  151.6316  -50.7738 O   0  0  0  0  0  0  0  0  0  0  0  0
   59.5541  153.1928  -44.7539 O   0  0  0  0  0  0  0  0  0  0  0  0
   60.1484  155.3611  -43.7071 O   0  0  0  0  0  0  0  0  0  0  0  0
   66.2600  153.0068  -48.2322 S   0  0  0  0  0  0  0  0  0  0  0  0
   60.5552  154.0588  -44.1807 S   0  0  0  0  0  0  0  0  0  0  0  0
   63.7762  155.3492  -49.4518 H   0  0  0  0  0  0  0  0  0  0  0  0
   66.9665  153.9753  -52.6529 H   0  0  0  0  0  0  0  0  0  0  0  0
   68.0861  152.7663  -52.0606 H   0  0  0  0  0  0  0  0  0  0  0  0
   61.3265  152.2522  -43.1480 H   0  0  0  0  0  0  0  0  0  0  0  0
   61.9510  153.7290  -42.4927 H   0  0  0  0  0  0  0  0  0  0  0  0
   70.7828  150.8620  -49.3165 H   0  0  0  0  0  0  0  0  0  0  0  0
   71.6330  149.3546  -47.5752 H   0  0  0  0  0  0  0  0  0  0  0  0
   66.8476  150.5825  -47.6651 H   0  0  0  0  0  0  0  0  0  0  0  0
   62.5644  156.4860  -47.8511 H   0  0  0  0  0  0  0  0  0  0  0  0
   61.0671  156.2632  -45.9059 H   0  0  0  0  0  0  0  0  0  0  0  0
   62.5699  152.3188  -45.2153 H   0  0  0  0  0  0  0  0  0  0  0  0
   64.0612  152.5394  -47.1479 H   0  0  0  0  0  0  0  0  0  0  0  0
   71.2294  147.9582  -45.6141 H   0  0  0  0  0  0  0  0  0  0  0  0
   69.6947  147.1341  -43.8368 H   0  0  0  0  0  0  0  0  0  0  0  0
   67.3108  147.7778  -43.8743 H   0  0  0  0  0  0  0  0  0  0  0  0
   66.4485  149.2345  -45.6596 H   0  0  0  0  0  0  0  0  0  0  0  0
  1  7  2  0
  2  8  1  0
  2 30  1  0
  3  6  1  0
  3 31  1  0
  3 32  1  0
  4 33  1  0
  4 34  1  0
  5 28  1  0
  6  1  1  0
  6  5  2  0
  7  2  1  0
  7 28  1  0
  8 16  2  0
  8 20  1  0
  9  5  1  0
  9 10  1  0
 10 11  2  0
 10 15  1  0
 11 12  1  0
 11 35  1  0
 12 13  2  0
 12 36  1  0
 13 21  1  0
 14 13  1  0
 14 24  1  0
 15 14  2  0
 15 37  1  0
 16 17  1  0
 16 38  1  0
 17 18  2  0
 17 39  1  0
 18 29  1  0
 19 18  1  0
 19 40  1  0
 20 19  2  0
 20 41  1  0
 21 22  2  0
 21 42  1  0
 22 43  1  0
 23 22  1  0
 23 44  1  0
 24 23  2  0
 24 45  1  0
 25  9  2  0
 26 29  2  0
 29 27  2  0
 29  4  1  0
M  END
>  <lm5_entropy_jk>  (1) 
22.397995528352578

>  <number_of_rotatable_bonds>  (1) 
5

>  <IC50_NM>  (1) 
82000

>  <charge>  (1) 
0

$$$$
