3SQQ
     RDKit          3D

 42 44  0  0  0  0  0  0  0  0999 V2000
   65.8038  154.4281  -50.3995 N   0  0  0  0  0  0  0  0  0  0  0  0
   64.3882  154.8827  -48.6362 N   0  0  0  0  0  0  0  0  0  0  0  0
   67.3010  153.6238  -51.9848 N   0  0  0  0  0  0  0  0  0  0  0  0
   61.4888  153.2375  -42.8717 N   0  0  0  0  0  0  0  0  0  0  0  0
   67.3334  152.7672  -49.7303 C   0  0  0  0  0  0  0  0  0  0  0  0
   66.8391  153.6018  -50.7443 C   0  0  0  0  0  0  0  0  0  0  0  0
   65.4249  154.1960  -49.1587 C   0  0  0  0  0  0  0  0  0  0  0  0
   63.6259  154.6363  -47.4833 C   0  0  0  0  0  0  0  0  0  0  0  0
   68.2891  151.7270  -49.9551 C   0  0  0  0  0  0  0  0  0  0  0  0
   68.6263  150.7638  -48.8569 C   0  0  0  0  0  0  0  0  0  0  0  0
   69.9573  150.3921  -48.6291 C   0  0  0  0  0  0  0  0  0  0  0  0
   70.2123  149.4749  -47.6127 C   0  0  0  0  0  0  0  0  0  0  0  0
   69.1923  148.8932  -46.8792 C   0  0  0  0  0  0  0  0  0  0  0  0
   67.8732  149.2245  -47.1426 C   0  0  0  0  0  0  0  0  0  0  0  0
   67.6042  150.1631  -48.1238 C   0  0  0  0  0  0  0  0  0  0  0  0
   63.6068  153.4207  -46.7986 C   0  0  0  0  0  0  0  0  0  0  0  0
   62.7684  153.2560  -45.7101 C   0  0  0  0  0  0  0  0  0  0  0  0
   61.9600  154.3044  -45.2983 C   0  0  0  0  0  0  0  0  0  0  0  0
   61.9577  155.5130  -45.9797 C   0  0  0  0  0  0  0  0  0  0  0  0
   62.7942  155.6739  -47.0638 C   0  0  0  0  0  0  0  0  0  0  0  0
   71.1059  150.9072  -49.4496 C   0  0  0  0  0  0  0  0  0  0  0  0
   68.8441  151.6075  -51.0562 O   0  0  0  0  0  0  0  0  0  0  0  0
   60.3035  155.3009  -43.5329 O   0  0  0  0  0  0  0  0  0  0  0  0
   59.7427  153.1811  -44.6794 O   0  0  0  0  0  0  0  0  0  0  0  0
   66.3753  153.0323  -48.2950 S   0  0  0  0  0  0  0  0  0  0  0  0
   60.7379  154.0306  -44.0660 S   0  0  0  0  0  0  0  0  0  0  0  0
   63.9195  155.4766  -49.3203 H   0  0  0  0  0  0  0  0  0  0  0  0
   66.9115  154.2278  -52.6918 H   0  0  0  0  0  0  0  0  0  0  0  0
   68.0042  152.9418  -52.2224 H   0  0  0  0  0  0  0  0  0  0  0  0
   61.4169  152.2224  -42.9829 H   0  0  0  0  0  0  0  0  0  0  0  0
   61.2167  153.6085  -41.9737 H   0  0  0  0  0  0  0  0  0  0  0  0
   71.2355  149.1720  -47.4459 H   0  0  0  0  0  0  0  0  0  0  0  0
   69.4223  148.1392  -46.1404 H   0  0  0  0  0  0  0  0  0  0  0  0
   67.0584  148.7458  -46.6205 H   0  0  0  0  0  0  0  0  0  0  0  0
   66.5763  150.3926  -48.3606 H   0  0  0  0  0  0  0  0  0  0  0  0
   64.1937  152.5841  -47.1347 H   0  0  0  0  0  0  0  0  0  0  0  0
   62.7053  152.3014  -45.2069 H   0  0  0  0  0  0  0  0  0  0  0  0
   61.2833  156.3004  -45.6841 H   0  0  0  0  0  0  0  0  0  0  0  0
   62.7713  156.5892  -47.6329 H   0  0  0  0  0  0  0  0  0  0  0  0
   71.0067  150.5997  -50.4867 H   0  0  0  0  0  0  0  0  0  0  0  0
   72.0355  150.5031  -49.0646 H   0  0  0  0  0  0  0  0  0  0  0  0
   71.1520  151.9953  -49.4550 H   0  0  0  0  0  0  0  0  0  0  0  0
  1  7  2  0
  2  8  1  0
  2 27  1  0
  3  6  1  0
  3 28  1  0
  3 29  1  0
  4 30  1  0
  4 31  1  0
  5 25  1  0
  6  1  1  0
  6  5  2  0
  7  2  1  0
  7 25  1  0
  8 20  2  0
  8 16  1  0
  9  5  1  0
  9 10  1  0
 10 11  1  0
 10 15  2  0
 11 12  2  0
 12 13  1  0
 12 32  1  0
 13 33  1  0
 14 13  2  0
 14 34  1  0
 15 14  1  0
 15 35  1  0
 16 17  2  0
 16 36  1  0
 17 18  1  0
 17 37  1  0
 18 26  1  0
 19 18  2  0
 19 38  1  0
 20 19  1  0
 20 39  1  0
 21 11  1  0
 21 40  1  0
 21 41  1  0
 21 42  1  0
 22  9  2  0
 24 26  2  0
 26 23  2  0
 26  4  1  0
M  END
>  <lm5_entropy_jk>  (1) 
31.418959509749985

>  <number_of_rotatable_bonds>  (1) 
5

>  <IC50_NM>  (1) 
4800

>  <charge>  (1) 
0

$$$$
