3SQQ
     RDKit          3D

 42 44  0  0  0  0  0  0  0  0999 V2000
   65.8013  154.4217  -50.4157 N   0  0  0  0  0  0  0  0  0  0  0  0
   64.3792  154.8779  -48.6565 N   0  0  0  0  0  0  0  0  0  0  0  0
   67.3105  153.6199  -51.9935 N   0  0  0  0  0  0  0  0  0  0  0  0
   61.4690  153.2516  -42.8907 N   0  0  0  0  0  0  0  0  0  0  0  0
   67.3338  152.7652  -49.7386 C   0  0  0  0  0  0  0  0  0  0  0  0
   66.8413  153.5980  -50.7552 C   0  0  0  0  0  0  0  0  0  0  0  0
   65.4183  154.1910  -49.1757 C   0  0  0  0  0  0  0  0  0  0  0  0
   63.6101  154.6322  -47.5076 C   0  0  0  0  0  0  0  0  0  0  0  0
   68.2931  151.7270  -49.9598 C   0  0  0  0  0  0  0  0  0  0  0  0
   68.6306  150.7664  -48.8599 C   0  0  0  0  0  0  0  0  0  0  0  0
   69.9627  150.3997  -48.6315 C   0  0  0  0  0  0  0  0  0  0  0  0
   70.2205  149.4827  -47.6157 C   0  0  0  0  0  0  0  0  0  0  0  0
   69.2019  148.8982  -46.8823 C   0  0  0  0  0  0  0  0  0  0  0  0
   67.8820  149.2263  -47.1449 C   0  0  0  0  0  0  0  0  0  0  0  0
   67.6102  150.1641  -48.1259 C   0  0  0  0  0  0  0  0  0  0  0  0
   63.5882  153.4185  -46.8203 C   0  0  0  0  0  0  0  0  0  0  0  0
   62.7480  153.2571  -45.7332 C   0  0  0  0  0  0  0  0  0  0  0  0
   61.9383  154.3057  -45.3247 C   0  0  0  0  0  0  0  0  0  0  0  0
   61.9371  155.5126  -46.0097 C   0  0  0  0  0  0  0  0  0  0  0  0
   62.7761  155.6702  -47.0924 C   0  0  0  0  0  0  0  0  0  0  0  0
   71.1097  150.9191  -49.4517 C   0  0  0  0  0  0  0  0  0  0  0  0
   68.8509  151.6058  -51.0594 O   0  0  0  0  0  0  0  0  0  0  0  0
   60.2744  155.3044  -43.5687 O   0  0  0  0  0  0  0  0  0  0  0  0
   59.7265  153.1742  -44.7036 O   0  0  0  0  0  0  0  0  0  0  0  0
   66.3689  153.0291  -48.3074 S   0  0  0  0  0  0  0  0  0  0  0  0
   60.7153  154.0327  -44.0928 S   0  0  0  0  0  0  0  0  0  0  0  0
   63.9133  155.4736  -49.3408 H   0  0  0  0  0  0  0  0  0  0  0  0
   66.9225  154.2193  -52.7059 H   0  0  0  0  0  0  0  0  0  0  0  0
   68.0134  152.9353  -52.2265 H   0  0  0  0  0  0  0  0  0  0  0  0
   61.4007  152.2359  -43.0008 H   0  0  0  0  0  0  0  0  0  0  0  0
   61.1760  153.6191  -41.9972 H   0  0  0  0  0  0  0  0  0  0  0  0
   71.2447  149.1831  -47.4474 H   0  0  0  0  0  0  0  0  0  0  0  0
   69.4347  148.1459  -46.1427 H   0  0  0  0  0  0  0  0  0  0  0  0
   67.0692  148.7461  -46.6211 H   0  0  0  0  0  0  0  0  0  0  0  0
   66.5818  150.3918  -48.3611 H   0  0  0  0  0  0  0  0  0  0  0  0
   64.1750  152.5788  -47.1479 H   0  0  0  0  0  0  0  0  0  0  0  0
   62.6892  152.3036  -45.2280 H   0  0  0  0  0  0  0  0  0  0  0  0
   61.2651  156.3032  -45.7160 H   0  0  0  0  0  0  0  0  0  0  0  0
   62.7558  156.5857  -47.6611 H   0  0  0  0  0  0  0  0  0  0  0  0
   71.0172  150.6026  -50.4867 H   0  0  0  0  0  0  0  0  0  0  0  0
   72.0414  150.5260  -49.0604 H   0  0  0  0  0  0  0  0  0  0  0  0
   71.1470  152.0074  -49.4664 H   0  0  0  0  0  0  0  0  0  0  0  0
  1  7  2  0
  2  8  1  0
  2 27  1  0
  3  6  1  0
  3 28  1  0
  3 29  1  0
  4 30  1  0
  4 31  1  0
  5 25  1  0
  6  1  1  0
  6  5  2  0
  7  2  1  0
  7 25  1  0
  8 20  1  0
  8 16  2  0
  9  5  1  0
  9 10  1  0
 10 11  2  0
 10 15  1  0
 11 12  1  0
 12 13  2  0
 12 32  1  0
 13 33  1  0
 14 13  1  0
 14 34  1  0
 15 14  2  0
 15 35  1  0
 16 17  1  0
 16 36  1  0
 17 18  2  0
 17 37  1  0
 18 26  1  0
 19 18  1  0
 19 38  1  0
 20 19  2  0
 20 39  1  0
 21 11  1  0
 21 40  1  0
 21 41  1  0
 21 42  1  0
 22  9  2  0
 24 26  2  0
 26 23  2  0
 26  4  1  0
M  END
>  <lm5_entropy_jk>  (1) 
31.418959509749985

>  <number_of_rotatable_bonds>  (1) 
5

>  <IC50_NM>  (1) 
4800

>  <charge>  (1) 
0

$$$$
