3RAH
     RDKit          3D

 46 49  0  0  1  0  0  0  0  0999 V2000
   65.4739  154.5215  -50.1603 N   0  0  0  0  0  0  0  0  0  0  0  0
   63.9417  155.0560  -48.4678 N   0  0  0  0  0  0  0  0  0  0  0  0
   67.1569  153.6477  -51.5235 N   0  0  0  0  0  0  0  0  0  0  0  0
   68.6365  149.1418  -46.1128 C   0  0  0  0  0  0  0  0  0  0  0  0
   68.7324  148.8020  -47.4854 C   0  0  0  0  0  0  0  0  0  0  0  0
   68.5766  149.7541  -48.4456 C   0  0  0  0  0  0  0  0  0  0  0  0
   68.2537  151.4563  -46.7774 C   0  0  0  0  0  0  0  0  0  0  0  0
   68.4302  150.4939  -45.7532 C   0  0  0  0  0  0  0  0  0  0  0  0
   68.7188  148.1644  -45.0882 C   0  0  0  0  0  0  0  0  0  0  0  0
   68.6400  148.5294  -43.7744 C   0  0  0  0  0  0  0  0  0  0  0  0
   68.4807  149.8871  -43.4139 C   0  0  0  0  0  0  0  0  0  0  0  0
   68.3774  150.8437  -44.3820 C   0  0  0  0  0  0  0  0  0  0  0  0
   68.2940  151.0937  -48.0962 C   0  0  0  0  0  0  0  0  0  0  0  0
   68.0524  152.0344  -49.2400 C   0  0  0  0  0  0  0  0  0  0  0  0
   66.9824  152.9785  -49.2109 C   0  0  0  0  0  0  0  0  0  0  0  0
   66.5654  153.7120  -50.3352 C   0  0  0  0  0  0  0  0  0  0  0  0
   64.9827  154.3766  -48.9422 C   0  0  0  0  0  0  0  0  0  0  0  0
   63.3833  154.8407  -47.1412 C   0  0  0  0  0  0  0  0  0  0  0  0
   62.4094  153.6646  -47.0780 C   0  0  0  0  0  0  0  0  0  0  0  0
   61.8860  153.4833  -45.6574 C   0  0  0  0  0  0  0  0  0  0  0  0
   61.2031  154.7520  -45.1615 C   0  0  0  0  0  0  0  0  0  0  0  0
   62.1551  155.9422  -45.2404 C   0  0  0  0  0  0  0  0  0  0  0  0
   62.6994  156.1145  -46.6556 C   0  0  0  0  0  0  0  0  0  0  0  0
   68.7699  151.9182  -50.2422 O   0  0  0  0  0  0  0  0  0  0  0  0
   65.8165  153.2278  -47.9341 S   0  0  0  0  0  0  0  0  0  0  0  0
   68.9036  147.7675  -47.7418 H   0  0  0  0  0  0  0  0  0  0  0  0
   68.6453  149.5117  -49.4930 H   0  0  0  0  0  0  0  0  0  0  0  0
   63.3858  155.5936  -49.1344 H   0  0  0  0  0  0  0  0  0  0  0  0
   68.0907  152.4801  -46.4870 H   0  0  0  0  0  0  0  0  0  0  0  0
   66.8279  154.1722  -52.3226 H   0  0  0  0  0  0  0  0  0  0  0  0
   67.9436  153.0205  -51.5908 H   0  0  0  0  0  0  0  0  0  0  0  0
   68.8105  147.1290  -45.3817 H   0  0  0  0  0  0  0  0  0  0  0  0
   68.6758  147.7754  -42.9995 H   0  0  0  0  0  0  0  0  0  0  0  0
   68.4435  150.1613  -42.3693 H   0  0  0  0  0  0  0  0  0  0  0  0
   68.2400  151.8802  -44.1122 H   0  0  0  0  0  0  0  0  0  0  0  0
   64.2148  154.6263  -46.4664 H   0  0  0  0  0  0  0  0  0  0  0  0
   62.9011  152.7574  -47.4241 H   0  0  0  0  0  0  0  0  0  0  0  0
   61.5831  153.8660  -47.7658 H   0  0  0  0  0  0  0  0  0  0  0  0
   62.7212  153.2392  -44.9942 H   0  0  0  0  0  0  0  0  0  0  0  0
   61.2021  152.6428  -45.6012 H   0  0  0  0  0  0  0  0  0  0  0  0
   60.8416  154.6093  -44.1434 H   0  0  0  0  0  0  0  0  0  0  0  0
   60.3324  154.9621  -45.7863 H   0  0  0  0  0  0  0  0  0  0  0  0
   61.6496  156.8556  -44.9277 H   0  0  0  0  0  0  0  0  0  0  0  0
   62.9886  155.7842  -44.5490 H   0  0  0  0  0  0  0  0  0  0  0  0
   61.8851  156.3538  -47.3428 H   0  0  0  0  0  0  0  0  0  0  0  0
   63.4104  156.9374  -46.6871 H   0  0  0  0  0  0  0  0  0  0  0  0
  1 17  2  0
  2 18  1  0
  2 28  1  0
  3 16  1  0
  3 30  1  0
  3 31  1  0
  4  9  1  0
  5  4  2  0
  5 26  1  0
  6  5  1  0
  6 27  1  0
  7  8  2  0
  7 29  1  0
  8  4  1  0
  8 12  1  0
  9 10  2  0
  9 32  1  0
 10 33  1  0
 11 10  1  0
 11 34  1  0
 12 11  2  0
 12 35  1  0
 13  6  2  0
 13  7  1  0
 14 13  1  0
 14 24  2  0
 15 14  1  0
 15 25  1  0
 16  1  1  0
 16 15  2  0
 17  2  1  0
 17 25  1  0
 18 23  1  0
 18 36  1  0
 19 18  1  0
 19 20  1  0
 19 37  1  0
 19 38  1  0
 20 21  1  0
 20 39  1  0
 20 40  1  0
 21 41  1  0
 21 42  1  0
 22 21  1  0
 22 43  1  0
 22 44  1  0
 23 22  1  0
 23 45  1  0
 23 46  1  0
M  END
>  <lm5_entropy_jk>  (1) 
20.76925268888156

>  <number_of_rotatable_bonds>  (1) 
4

>  <IC50_NM>  (1) 
12000

>  <charge>  (1) 
0

$$$$
