3QTX
     RDKit          3D

 41 43  0  0  1  0  0  0  0  0999 V2000
   65.8718  154.2408  -50.4789 N   0  0  0  0  0  0  0  0  0  0  0  0
   67.6997  153.5162  -51.7660 N   0  0  0  0  0  0  0  0  0  0  0  0
   64.1907  154.6595  -48.9184 N   0  0  0  0  0  0  0  0  0  0  0  0
   70.8585  149.1442  -46.0459 N   0  0  0  0  0  0  0  0  0  0  0  0
   61.4781  153.1009  -43.0732 N   0  0  0  0  0  0  0  0  0  0  0  0
   67.0141  153.4913  -50.6231 C   0  0  0  0  0  0  0  0  0  0  0  0
   67.3717  152.7158  -49.5192 C   0  0  0  0  0  0  0  0  0  0  0  0
   68.4820  151.8165  -49.4621 C   0  0  0  0  0  0  0  0  0  0  0  0
   68.4855  150.7387  -48.4075 C   0  0  0  0  0  0  0  0  0  0  0  0
   69.6667  150.4205  -47.7622 C   0  0  0  0  0  0  0  0  0  0  0  0
   69.6297  149.4524  -46.7715 C   0  0  0  0  0  0  0  0  0  0  0  0
   68.4812  148.7717  -46.4217 C   0  0  0  0  0  0  0  0  0  0  0  0
   67.3146  149.0637  -47.1014 C   0  0  0  0  0  0  0  0  0  0  0  0
   67.3247  150.0359  -48.0843 C   0  0  0  0  0  0  0  0  0  0  0  0
   65.3253  154.0323  -49.2993 C   0  0  0  0  0  0  0  0  0  0  0  0
   63.4383  154.4522  -47.7547 C   0  0  0  0  0  0  0  0  0  0  0  0
   62.6500  155.5127  -47.3078 C   0  0  0  0  0  0  0  0  0  0  0  0
   61.8596  155.3829  -46.1834 C   0  0  0  0  0  0  0  0  0  0  0  0
   61.8693  154.1844  -45.4915 C   0  0  0  0  0  0  0  0  0  0  0  0
   62.6147  153.1014  -45.9413 C   0  0  0  0  0  0  0  0  0  0  0  0
   63.3992  153.2330  -47.0701 C   0  0  0  0  0  0  0  0  0  0  0  0
   69.4238  151.8877  -50.2530 O   0  0  0  0  0  0  0  0  0  0  0  0
   71.8820  149.7345  -46.3629 O   0  0  0  0  0  0  0  0  0  0  0  0
   70.8107  148.3422  -45.1299 O   0  0  0  0  0  0  0  0  0  0  0  0
   59.6607  153.1012  -44.7940 O   0  0  0  0  0  0  0  0  0  0  0  0
   60.2828  155.1884  -43.6536 O   0  0  0  0  0  0  0  0  0  0  0  0
   66.1880  152.9427  -48.2636 S   0  0  0  0  0  0  0  0  0  0  0  0
   60.7012  153.9213  -44.2175 S   0  0  0  0  0  0  0  0  0  0  0  0
   67.3371  153.9933  -52.5812 H   0  0  0  0  0  0  0  0  0  0  0  0
   68.5077  152.9166  -51.8204 H   0  0  0  0  0  0  0  0  0  0  0  0
   70.5884  150.9237  -48.0003 H   0  0  0  0  0  0  0  0  0  0  0  0
   68.5174  148.0188  -45.6557 H   0  0  0  0  0  0  0  0  0  0  0  0
   66.4004  148.5383  -46.8685 H   0  0  0  0  0  0  0  0  0  0  0  0
   66.4099  150.2401  -48.6149 H   0  0  0  0  0  0  0  0  0  0  0  0
   63.7828  155.3289  -49.5757 H   0  0  0  0  0  0  0  0  0  0  0  0
   62.6066  156.4109  -47.8966 H   0  0  0  0  0  0  0  0  0  0  0  0
   61.2116  156.1873  -45.8709 H   0  0  0  0  0  0  0  0  0  0  0  0
   62.5438  152.1506  -45.4317 H   0  0  0  0  0  0  0  0  0  0  0  0
   63.9183  152.3705  -47.4473 H   0  0  0  0  0  0  0  0  0  0  0  0
   61.4296  152.0834  -43.2107 H   0  0  0  0  0  0  0  0  0  0  0  0
   61.2951  153.4452  -42.1467 H   0  0  0  0  0  0  0  0  0  0  0  0
  1  6  1  0
  1 15  2  0
  2  6  1  0
  2 29  1  0
  2 30  1  0
  3 15  1  0
  3 16  1  0
  3 35  1  0
  4 11  1  0
  4 23  2  0
  4 24  1  0
  5 28  1  0
  5 40  1  0
  5 41  1  0
  6  7  2  0
  7 27  1  0
  8  7  1  0
  8  9  1  0
  8 22  2  0
  9 10  2  0
  9 14  1  0
 10 11  1  0
 10 31  1  0
 11 12  2  0
 12 13  1  0
 12 32  1  0
 13 14  2  0
 13 33  1  0
 14 34  1  0
 15 27  1  0
 16 17  2  0
 16 21  1  0
 17 18  1  0
 17 36  1  0
 18 19  2  0
 18 37  1  0
 19 20  1  0
 19 28  1  0
 20 21  2  0
 20 38  1  0
 21 39  1  0
 25 28  2  0
 26 28  2  0
M  CHG  2   4   1  24  -1
M  END
>  <lm5_entropy_jk>  (1) 
24.48849005177307

>  <number_of_rotatable_bonds>  (1) 
6

>  <IC50_NM>  (1) 
70

>  <charge>  (1) 
0

$$$$
