3QTR
     RDKit          3D

 34 36  0  0  1  0  0  0  0  0999 V2000
   65.3541  154.2823  -50.5925 N   0  0  0  0  0  0  0  0  0  0  0  0
   67.0268  153.5492  -52.0465 N   0  0  0  0  0  0  0  0  0  0  0  0
   63.8175  154.7076  -48.9140 N   0  0  0  0  0  0  0  0  0  0  0  0
   66.4999  153.5692  -50.8263 C   0  0  0  0  0  0  0  0  0  0  0  0
   67.0170  152.8700  -49.7306 C   0  0  0  0  0  0  0  0  0  0  0  0
   68.1807  152.0491  -49.8095 C   0  0  0  0  0  0  0  0  0  0  0  0
   68.5734  151.1037  -48.7150 C   0  0  0  0  0  0  0  0  0  0  0  0
   67.6405  150.3722  -47.9838 C   0  0  0  0  0  0  0  0  0  0  0  0
   68.0611  149.4148  -47.0713 C   0  0  0  0  0  0  0  0  0  0  0  0
   69.4174  149.1944  -46.8844 C   0  0  0  0  0  0  0  0  0  0  0  0
   70.3490  149.9248  -47.6078 C   0  0  0  0  0  0  0  0  0  0  0  0
   69.9307  150.8685  -48.5279 C   0  0  0  0  0  0  0  0  0  0  0  0
   64.9392  154.1134  -49.3547 C   0  0  0  0  0  0  0  0  0  0  0  0
   63.0944  154.4812  -47.7273 C   0  0  0  0  0  0  0  0  0  0  0  0
   62.2163  155.4886  -47.3306 C   0  0  0  0  0  0  0  0  0  0  0  0
   61.4235  155.3205  -46.2104 C   0  0  0  0  0  0  0  0  0  0  0  0
   61.4985  154.1552  -45.4621 C   0  0  0  0  0  0  0  0  0  0  0  0
   62.3644  153.1516  -45.8608 C   0  0  0  0  0  0  0  0  0  0  0  0
   63.1555  153.2985  -46.9912 C   0  0  0  0  0  0  0  0  0  0  0  0
   68.8975  152.0836  -50.8182 O   0  0  0  0  0  0  0  0  0  0  0  0
   65.9672  153.1239  -48.3579 S   0  0  0  0  0  0  0  0  0  0  0  0
   66.6797  154.1219  -52.8028 H   0  0  0  0  0  0  0  0  0  0  0  0
   67.8960  153.0448  -52.1283 H   0  0  0  0  0  0  0  0  0  0  0  0
   66.5846  150.5053  -48.1587 H   0  0  0  0  0  0  0  0  0  0  0  0
   67.3301  148.8216  -46.5434 H   0  0  0  0  0  0  0  0  0  0  0  0
   69.7443  148.4204  -46.2048 H   0  0  0  0  0  0  0  0  0  0  0  0
   71.4033  149.7177  -47.5014 H   0  0  0  0  0  0  0  0  0  0  0  0
   70.6438  151.4099  -49.1319 H   0  0  0  0  0  0  0  0  0  0  0  0
   63.3922  155.3834  -49.5516 H   0  0  0  0  0  0  0  0  0  0  0  0
   62.1282  156.3760  -47.9388 H   0  0  0  0  0  0  0  0  0  0  0  0
   60.7171  156.0939  -45.9512 H   0  0  0  0  0  0  0  0  0  0  0  0
   60.8706  154.0124  -44.5962 H   0  0  0  0  0  0  0  0  0  0  0  0
   62.3949  152.2279  -45.3054 H   0  0  0  0  0  0  0  0  0  0  0  0
   63.7738  152.4782  -47.3119 H   0  0  0  0  0  0  0  0  0  0  0  0
  1  4  1  0
  1 13  2  0
  2  4  1  0
  2 22  1  0
  2 23  1  0
  3 13  1  0
  3 14  1  0
  3 29  1  0
  4  5  2  0
  5 21  1  0
  6  5  1  0
  6  7  1  0
  6 20  2  0
  7  8  2  0
  7 12  1  0
  8  9  1  0
  8 24  1  0
  9 10  2  0
  9 25  1  0
 10 11  1  0
 10 26  1  0
 11 12  2  0
 11 27  1  0
 12 28  1  0
 13 21  1  0
 14 15  2  0
 14 19  1  0
 15 16  1  0
 15 30  1  0
 16 17  2  0
 16 31  1  0
 17 18  1  0
 17 32  1  0
 18 19  2  0
 18 33  1  0
 19 34  1  0
M  END
>  <lm5_entropy_jk>  (1) 
21.136452688881562

>  <number_of_rotatable_bonds>  (1) 
4

>  <IC50_NM>  (1) 
930

>  <charge>  (1) 
0

$$$$
