3RK9
     RDKit          3D

 32 33  0  0  1  0  0  0  0  0999 V2000
   64.4805  154.9662  -48.3565 N   0  0  0  0  0  0  0  0  0  0  0  0
   65.7060  154.4926  -50.2882 N   0  0  0  0  0  0  0  0  0  0  0  0
   67.1450  153.7004  -51.9449 N   0  0  0  0  0  0  0  0  0  0  0  0
   70.7464  149.8931  -47.9334 N   0  0  0  0  0  0  0  0  0  0  0  0
   63.2100  155.7968  -46.4860 C   0  0  0  0  0  0  0  0  0  0  0  0
   63.8976  154.5748  -47.0733 C   0  0  0  0  0  0  0  0  0  0  0  0
   62.9192  153.4160  -47.2262 C   0  0  0  0  0  0  0  0  0  0  0  0
   65.4247  154.2967  -49.0129 C   0  0  0  0  0  0  0  0  0  0  0  0
   66.7536  153.7064  -50.6754 C   0  0  0  0  0  0  0  0  0  0  0  0
   67.3269  152.8970  -49.6819 C   0  0  0  0  0  0  0  0  0  0  0  0
   68.4522  152.0622  -49.9202 C   0  0  0  0  0  0  0  0  0  0  0  0
   68.8970  151.0158  -48.9355 C   0  0  0  0  0  0  0  0  0  0  0  0
   68.0162  150.1159  -48.3507 C   0  0  0  0  0  0  0  0  0  0  0  0
   68.5203  149.0874  -47.5722 C   0  0  0  0  0  0  0  0  0  0  0  0
   69.8919  149.0184  -47.3967 C   0  0  0  0  0  0  0  0  0  0  0  0
   70.2558  150.8592  -48.7064 C   0  0  0  0  0  0  0  0  0  0  0  0
   69.0955  152.1431  -50.9707 O   0  0  0  0  0  0  0  0  0  0  0  0
   66.4193  153.0978  -48.2027 S   0  0  0  0  0  0  0  0  0  0  0  0
   63.9194  156.6085  -46.3436 H   0  0  0  0  0  0  0  0  0  0  0  0
   62.7607  155.5537  -45.5261 H   0  0  0  0  0  0  0  0  0  0  0  0
   62.4164  156.1370  -47.1499 H   0  0  0  0  0  0  0  0  0  0  0  0
   64.7178  154.2762  -46.4242 H   0  0  0  0  0  0  0  0  0  0  0  0
   62.1454  153.6782  -47.9482 H   0  0  0  0  0  0  0  0  0  0  0  0
   62.4445  153.1818  -46.2742 H   0  0  0  0  0  0  0  0  0  0  0  0
   63.4311  152.5280  -47.5794 H   0  0  0  0  0  0  0  0  0  0  0  0
   63.8711  155.5140  -48.9581 H   0  0  0  0  0  0  0  0  0  0  0  0
   66.7869  154.3534  -52.6278 H   0  0  0  0  0  0  0  0  0  0  0  0
   68.0034  153.1991  -52.1218 H   0  0  0  0  0  0  0  0  0  0  0  0
   66.9540  150.1932  -48.5369 H   0  0  0  0  0  0  0  0  0  0  0  0
   67.8765  148.3462  -47.1257 H   0  0  0  0  0  0  0  0  0  0  0  0
   70.3376  148.2184  -46.8208 H   0  0  0  0  0  0  0  0  0  0  0  0
   70.9615  151.5329  -49.1762 H   0  0  0  0  0  0  0  0  0  0  0  0
  1  6  1  0
  1  8  1  0
  1 26  1  0
  2  8  2  0
  2  9  1  0
  3  9  1  0
  3 27  1  0
  3 28  1  0
  4 15  2  0
  4 16  1  0
  5  6  1  0
  5 19  1  0
  5 20  1  0
  5 21  1  0
  6  7  1  0
  6 22  1  0
  7 23  1  0
  7 24  1  0
  7 25  1  0
  8 18  1  0
  9 10  2  0
 10 18  1  0
 11 10  1  0
 11 12  1  0
 11 17  2  0
 12 13  1  0
 12 16  2  0
 13 14  2  0
 13 29  1  0
 14 15  1  0
 14 30  1  0
 15 31  1  0
 16 32  1  0
M  END
>  <lm5_entropy_jk>  (1) 
34.96174716553827

>  <number_of_rotatable_bonds>  (1) 
4

>  <IC50_NM>  (1) 
520

>  <charge>  (1) 
0

$$$$
