3SQQ
     RDKit          3D

 42 44  0  0  0  0  0  0  0  0999 V2000
   65.8580  154.5128  -50.3188 N   0  0  0  0  0  0  0  0  0  0  0  0
   64.5068  154.9108  -48.4796 N   0  0  0  0  0  0  0  0  0  0  0  0
   67.3149  153.7190  -51.9648 N   0  0  0  0  0  0  0  0  0  0  0  0
   61.7685  152.9494  -42.7452 N   0  0  0  0  0  0  0  0  0  0  0  0
   67.3930  152.8186  -49.7445 C   0  0  0  0  0  0  0  0  0  0  0  0
   66.8785  153.6936  -50.7121 C   0  0  0  0  0  0  0  0  0  0  0  0
   65.5229  154.2461  -49.0679 C   0  0  0  0  0  0  0  0  0  0  0  0
   63.7827  154.6035  -47.3186 C   0  0  0  0  0  0  0  0  0  0  0  0
   68.2665  151.7206  -50.0093 C   0  0  0  0  0  0  0  0  0  0  0  0
   68.4798  150.7055  -48.9257 C   0  0  0  0  0  0  0  0  0  0  0  0
   69.7720  150.3302  -48.5500 C   0  0  0  0  0  0  0  0  0  0  0  0
   69.9068  149.4004  -47.5217 C   0  0  0  0  0  0  0  0  0  0  0  0
   68.8067  148.8214  -46.9127 C   0  0  0  0  0  0  0  0  0  0  0  0
   67.5258  149.1610  -47.3222 C   0  0  0  0  0  0  0  0  0  0  0  0
   67.3759  150.1085  -48.3185 C   0  0  0  0  0  0  0  0  0  0  0  0
   63.8136  153.3640  -46.6792 C   0  0  0  0  0  0  0  0  0  0  0  0
   63.0048  153.1311  -45.5850 C   0  0  0  0  0  0  0  0  0  0  0  0
   62.1584  154.1277  -45.1256 C   0  0  0  0  0  0  0  0  0  0  0  0
   62.1199  155.3708  -45.7421 C   0  0  0  0  0  0  0  0  0  0  0  0
   62.9419  155.6047  -46.8272 C   0  0  0  0  0  0  0  0  0  0  0  0
   70.9897  150.8914  -49.2278 C   0  0  0  0  0  0  0  0  0  0  0  0
   68.8196  151.5852  -51.1104 O   0  0  0  0  0  0  0  0  0  0  0  0
   60.4447  154.9648  -43.3411 O   0  0  0  0  0  0  0  0  0  0  0  0
   60.0228  152.8469  -44.5367 O   0  0  0  0  0  0  0  0  0  0  0  0
   66.4875  153.0493  -48.2761 S   0  0  0  0  0  0  0  0  0  0  0  0
   60.9706  153.7348  -43.8988 S   0  0  0  0  0  0  0  0  0  0  0  0
   64.0092  155.5319  -49.1102 H   0  0  0  0  0  0  0  0  0  0  0  0
   66.9005  154.2976  -52.6778 H   0  0  0  0  0  0  0  0  0  0  0  0
   68.0340  153.0470  -52.1859 H   0  0  0  0  0  0  0  0  0  0  0  0
   61.8041  151.9325  -42.9140 H   0  0  0  0  0  0  0  0  0  0  0  0
   61.4991  153.2526  -41.8218 H   0  0  0  0  0  0  0  0  0  0  0  0
   70.8967  149.0822  -47.2324 H   0  0  0  0  0  0  0  0  0  0  0  0
   68.9452  148.0755  -46.1416 H   0  0  0  0  0  0  0  0  0  0  0  0
   66.6545  148.7026  -46.8732 H   0  0  0  0  0  0  0  0  0  0  0  0
   66.3826  150.3688  -48.6485 H   0  0  0  0  0  0  0  0  0  0  0  0
   64.4255  152.5564  -47.0354 H   0  0  0  0  0  0  0  0  0  0  0  0
   63.0030  152.1586  -45.1128 H   0  0  0  0  0  0  0  0  0  0  0  0
   61.4419  156.1333  -45.3883 H   0  0  0  0  0  0  0  0  0  0  0  0
   62.9160  156.5635  -47.3250 H   0  0  0  0  0  0  0  0  0  0  0  0
   71.0535  150.5436  -50.2552 H   0  0  0  0  0  0  0  0  0  0  0  0
   71.8856  150.5733  -48.7045 H   0  0  0  0  0  0  0  0  0  0  0  0
   70.9597  151.9788  -49.2680 H   0  0  0  0  0  0  0  0  0  0  0  0
  1  7  2  0
  2  8  1  0
  2 27  1  0
  3  6  1  0
  3 28  1  0
  3 29  1  0
  4 30  1  0
  4 31  1  0
  5 25  1  0
  6  1  1  0
  6  5  2  0
  7  2  1  0
  7 25  1  0
  8 20  1  0
  8 16  2  0
  9  5  1  0
  9 10  1  0
 10 11  2  0
 10 15  1  0
 11 12  1  0
 12 13  2  0
 12 32  1  0
 13 33  1  0
 14 13  1  0
 14 34  1  0
 15 14  2  0
 15 35  1  0
 16 17  1  0
 16 36  1  0
 17 18  2  0
 17 37  1  0
 18 26  1  0
 19 18  1  0
 19 38  1  0
 20 19  2  0
 20 39  1  0
 21 11  1  0
 21 40  1  0
 21 41  1  0
 21 42  1  0
 22  9  2  0
 24 26  2  0
 26 23  2  0
 26  4  1  0
M  END
>  <lm5_entropy_jk>  (1) 
31.418959509749985

>  <number_of_rotatable_bonds>  (1) 
5

>  <IC50_NM>  (1) 
4800

>  <charge>  (1) 
0

$$$$
