3SQQ
     RDKit          3D

 42 44  0  0  0  0  0  0  0  0999 V2000
   65.8589  154.5128  -50.3195 N   0  0  0  0  0  0  0  0  0  0  0  0
   64.5093  154.9142  -48.4804 N   0  0  0  0  0  0  0  0  0  0  0  0
   67.3106  153.7150  -51.9667 N   0  0  0  0  0  0  0  0  0  0  0  0
   61.7602  152.9529  -42.7541 N   0  0  0  0  0  0  0  0  0  0  0  0
   67.3913  152.8160  -49.7461 C   0  0  0  0  0  0  0  0  0  0  0  0
   66.8769  153.6909  -50.7135 C   0  0  0  0  0  0  0  0  0  0  0  0
   65.5254  154.2489  -49.0679 C   0  0  0  0  0  0  0  0  0  0  0  0
   63.7801  154.6055  -47.3233 C   0  0  0  0  0  0  0  0  0  0  0  0
   68.2684  151.7211  -50.0123 C   0  0  0  0  0  0  0  0  0  0  0  0
   68.4853  150.7058  -48.9293 C   0  0  0  0  0  0  0  0  0  0  0  0
   69.7776  150.3285  -48.5556 C   0  0  0  0  0  0  0  0  0  0  0  0
   69.9126  149.4034  -47.5234 C   0  0  0  0  0  0  0  0  0  0  0  0
   68.8121  148.8319  -46.9082 C   0  0  0  0  0  0  0  0  0  0  0  0
   67.5306  149.1687  -47.3181 C   0  0  0  0  0  0  0  0  0  0  0  0
   67.3814  150.1111  -48.3195 C   0  0  0  0  0  0  0  0  0  0  0  0
   63.8117  153.3666  -46.6827 C   0  0  0  0  0  0  0  0  0  0  0  0
   62.9987  153.1316  -45.5915 C   0  0  0  0  0  0  0  0  0  0  0  0
   62.1482  154.1273  -45.1363 C   0  0  0  0  0  0  0  0  0  0  0  0
   62.1091  155.3701  -45.7541 C   0  0  0  0  0  0  0  0  0  0  0  0
   62.9358  155.6056  -46.8357 C   0  0  0  0  0  0  0  0  0  0  0  0
   70.9951  150.8818  -49.2397 C   0  0  0  0  0  0  0  0  0  0  0  0
   68.8198  151.5894  -51.1148 O   0  0  0  0  0  0  0  0  0  0  0  0
   60.4345  154.9666  -43.3504 O   0  0  0  0  0  0  0  0  0  0  0  0
   60.0142  152.8471  -44.5425 O   0  0  0  0  0  0  0  0  0  0  0  0
   66.4901  153.0530  -48.2761 S   0  0  0  0  0  0  0  0  0  0  0  0
   60.9617  153.7366  -43.9070 S   0  0  0  0  0  0  0  0  0  0  0  0
   64.0146  155.5360  -49.1117 H   0  0  0  0  0  0  0  0  0  0  0  0
   66.8979  154.2975  -52.6773 H   0  0  0  0  0  0  0  0  0  0  0  0
   68.0310  153.0443  -52.1877 H   0  0  0  0  0  0  0  0  0  0  0  0
   61.7984  151.9367  -42.9252 H   0  0  0  0  0  0  0  0  0  0  0  0
   61.4950  153.2566  -41.8299 H   0  0  0  0  0  0  0  0  0  0  0  0
   70.9024  149.0850  -47.2343 H   0  0  0  0  0  0  0  0  0  0  0  0
   68.9505  148.0925  -46.1320 H   0  0  0  0  0  0  0  0  0  0  0  0
   66.6590  148.7125  -46.8660 H   0  0  0  0  0  0  0  0  0  0  0  0
   66.3885  150.3685  -48.6529 H   0  0  0  0  0  0  0  0  0  0  0  0
   64.4298  152.5618  -47.0348 H   0  0  0  0  0  0  0  0  0  0  0  0
   62.9952  152.1580  -45.1201 H   0  0  0  0  0  0  0  0  0  0  0  0
   61.4248  156.1306  -45.4063 H   0  0  0  0  0  0  0  0  0  0  0  0
   62.9111  156.5651  -47.3329 H   0  0  0  0  0  0  0  0  0  0  0  0
   71.0466  150.5414  -50.2703 H   0  0  0  0  0  0  0  0  0  0  0  0
   71.8914  150.5496  -48.7258 H   0  0  0  0  0  0  0  0  0  0  0  0
   70.9770  151.9700  -49.2708 H   0  0  0  0  0  0  0  0  0  0  0  0
  1  7  2  0
  2  8  1  0
  2 27  1  0
  3  6  1  0
  3 28  1  0
  3 29  1  0
  4 30  1  0
  4 31  1  0
  5 25  1  0
  6  1  1  0
  6  5  2  0
  7  2  1  0
  7 25  1  0
  8 20  2  0
  8 16  1  0
  9  5  1  0
  9 10  1  0
 10 11  1  0
 10 15  2  0
 11 12  2  0
 12 13  1  0
 12 32  1  0
 13 33  1  0
 14 13  2  0
 14 34  1  0
 15 14  1  0
 15 35  1  0
 16 17  2  0
 16 36  1  0
 17 18  1  0
 17 37  1  0
 18 26  1  0
 19 18  2  0
 19 38  1  0
 20 19  1  0
 20 39  1  0
 21 11  1  0
 21 40  1  0
 21 41  1  0
 21 42  1  0
 22  9  2  0
 24 26  2  0
 26 23  2  0
 26  4  1  0
M  END
>  <lm5_entropy_jk>  (1) 
31.418959509749985

>  <number_of_rotatable_bonds>  (1) 
5

>  <IC50_NM>  (1) 
4800

>  <charge>  (1) 
0

$$$$
