3RKB
     RDKit          3D

 39 41  0  0  0  0  0  0  0  0999 V2000
   67.3613  152.8358  -49.6645 C   0  0  0  0  0  0  0  0  0  0  0  0
   66.8906  153.6087  -50.7358 C   0  0  0  0  0  0  0  0  0  0  0  0
   65.7957  154.3906  -50.4830 N   0  0  0  0  0  0  0  0  0  0  0  0
   65.3816  154.2235  -49.2387 C   0  0  0  0  0  0  0  0  0  0  0  0
   66.3184  153.0949  -48.2904 S   0  0  0  0  0  0  0  0  0  0  0  0
   68.5080  151.9942  -49.7314 C   0  0  0  0  0  0  0  0  0  0  0  0
   67.4606  153.6309  -51.9384 N   0  0  0  0  0  0  0  0  0  0  0  0
   64.3497  154.8607  -48.6979 N   0  0  0  0  0  0  0  0  0  0  0  0
   69.3040  152.0639  -50.6737 O   0  0  0  0  0  0  0  0  0  0  0  0
   69.5118  149.1215  -46.8132 C   0  0  0  0  0  0  0  0  0  0  0  0
   70.4721  149.8457  -47.3908 N   0  0  0  0  0  0  0  0  0  0  0  0
   70.1154  150.7453  -48.3087 C   0  0  0  0  0  0  0  0  0  0  0  0
   68.7955  150.9861  -48.6513 C   0  0  0  0  0  0  0  0  0  0  0  0
   67.8068  150.2224  -48.0399 C   0  0  0  0  0  0  0  0  0  0  0  0
   68.1670  149.2706  -47.1053 C   0  0  0  0  0  0  0  0  0  0  0  0
   62.5505  153.1970  -45.7561 C   0  0  0  0  0  0  0  0  0  0  0  0
   63.0279  153.3702  -47.1933 C   0  0  0  0  0  0  0  0  0  0  0  0
   63.8854  154.6277  -47.3352 C   0  0  0  0  0  0  0  0  0  0  0  0
   63.1191  155.8513  -46.8474 C   0  0  0  0  0  0  0  0  0  0  0  0
   62.6370  155.6739  -45.4114 C   0  0  0  0  0  0  0  0  0  0  0  0
   61.7777  154.4209  -45.2846 C   0  0  0  0  0  0  0  0  0  0  0  0
   67.0327  154.0975  -52.7262 H   0  0  0  0  0  0  0  0  0  0  0  0
   68.2443  153.0091  -52.0633 H   0  0  0  0  0  0  0  0  0  0  0  0
   63.7404  155.3906  -49.3238 H   0  0  0  0  0  0  0  0  0  0  0  0
   69.8303  148.3730  -46.0997 H   0  0  0  0  0  0  0  0  0  0  0  0
   70.9021  151.3044  -48.7972 H   0  0  0  0  0  0  0  0  0  0  0  0
   66.7682  150.3441  -48.3118 H   0  0  0  0  0  0  0  0  0  0  0  0
   67.4246  148.6447  -46.6357 H   0  0  0  0  0  0  0  0  0  0  0  0
   63.4137  153.0414  -45.1022 H   0  0  0  0  0  0  0  0  0  0  0  0
   61.9274  152.3135  -45.6674 H   0  0  0  0  0  0  0  0  0  0  0  0
   63.6009  152.5019  -47.5089 H   0  0  0  0  0  0  0  0  0  0  0  0
   62.1706  153.4597  -47.8680 H   0  0  0  0  0  0  0  0  0  0  0  0
   64.7725  154.5055  -46.7147 H   0  0  0  0  0  0  0  0  0  0  0  0
   62.2660  156.0111  -47.5089 H   0  0  0  0  0  0  0  0  0  0  0  0
   63.7556  156.7289  -46.9232 H   0  0  0  0  0  0  0  0  0  0  0  0
   62.0773  156.5565  -45.1034 H   0  0  0  0  0  0  0  0  0  0  0  0
   63.4995  155.5904  -44.7430 H   0  0  0  0  0  0  0  0  0  0  0  0
   61.4343  154.2780  -44.2608 H   0  0  0  0  0  0  0  0  0  0  0  0
   60.8901  154.5450  -45.9089 H   0  0  0  0  0  0  0  0  0  0  0  0
  1  5  1  0
  2  3  1  0
  2  1  2  0
  3  4  2  0
  4  8  1  0
  4  5  1  0
  6  1  1  0
  6 13  1  0
  7  2  1  0
  7 22  1  0
  7 23  1  0
  8 18  1  0
  8 24  1  0
  9  6  2  0
 10 25  1  0
 11 10  2  0
 12 11  1  0
 12 26  1  0
 13 12  2  0
 13 14  1  0
 14 15  2  0
 14 27  1  0
 15 10  1  0
 15 28  1  0
 16 21  1  0
 16 29  1  0
 16 30  1  0
 17 16  1  0
 17 31  1  0
 17 32  1  0
 18 17  1  0
 18 19  1  0
 18 33  1  0
 19 20  1  0
 19 34  1  0
 19 35  1  0
 20 21  1  0
 20 36  1  0
 20 37  1  0
 21 38  1  0
 21 39  1  0
M  END
>  <lm5_entropy_jk>  (1) 
20.214453483104165

>  <number_of_rotatable_bonds>  (1) 
4

>  <IC50_NM>  (1) 
380

>  <charge>  (1) 
0

$$$$
