3RAL
     RDKit          3D

 43 45  0  0  1  0  0  0  0  0999 V2000
   65.9489  154.4248  -50.4299 N   0  0  0  0  0  0  0  0  0  0  0  0
   67.4902  153.5740  -52.0051 N   0  0  0  0  0  0  0  0  0  0  0  0
   64.5554  154.8817  -48.6018 N   0  0  0  0  0  0  0  0  0  0  0  0
   61.7472  152.8688  -42.7427 N   0  0  0  0  0  0  0  0  0  0  0  0
   68.4578  148.9936  -46.6123 C   0  0  0  0  0  0  0  0  0  0  0  0
   69.6668  149.5208  -47.0424 C   0  0  0  0  0  0  0  0  0  0  0  0
   69.7069  150.4238  -48.1050 C   0  0  0  0  0  0  0  0  0  0  0  0
   67.3271  150.1919  -48.3521 C   0  0  0  0  0  0  0  0  0  0  0  0
   67.2946  149.3220  -47.2870 C   0  0  0  0  0  0  0  0  0  0  0  0
   70.8227  148.0404  -45.6376 C   0  0  0  0  0  0  0  0  0  0  0  0
   68.5317  150.7796  -48.7377 C   0  0  0  0  0  0  0  0  0  0  0  0
   68.5208  151.8146  -49.8334 C   0  0  0  0  0  0  0  0  0  0  0  0
   67.5243  152.8386  -49.7236 C   0  0  0  0  0  0  0  0  0  0  0  0
   67.0190  153.6220  -50.7548 C   0  0  0  0  0  0  0  0  0  0  0  0
   65.5934  154.2107  -49.1801 C   0  0  0  0  0  0  0  0  0  0  0  0
   63.8022  154.5572  -47.4548 C   0  0  0  0  0  0  0  0  0  0  0  0
   63.8906  153.3518  -46.7520 C   0  0  0  0  0  0  0  0  0  0  0  0
   63.0819  153.0988  -45.6523 C   0  0  0  0  0  0  0  0  0  0  0  0
   62.1764  154.0595  -45.2159 C   0  0  0  0  0  0  0  0  0  0  0  0
   62.0742  155.2577  -45.9109 C   0  0  0  0  0  0  0  0  0  0  0  0
   62.8678  155.5000  -47.0147 C   0  0  0  0  0  0  0  0  0  0  0  0
   59.9450  153.0079  -44.3816 O   0  0  0  0  0  0  0  0  0  0  0  0
   60.7107  155.0754  -43.2886 O   0  0  0  0  0  0  0  0  0  0  0  0
   69.3068  151.7651  -50.7753 O   0  0  0  0  0  0  0  0  0  0  0  0
   70.8524  149.1931  -46.4661 O   0  0  0  0  0  0  0  0  0  0  0  0
   66.5720  153.1065  -48.2968 S   0  0  0  0  0  0  0  0  0  0  0  0
   61.0270  153.7949  -43.8615 S   0  0  0  0  0  0  0  0  0  0  0  0
   68.4027  148.3054  -45.7823 H   0  0  0  0  0  0  0  0  0  0  0  0
   67.1638  154.2022  -52.7180 H   0  0  0  0  0  0  0  0  0  0  0  0
   68.3157  153.0096  -52.1421 H   0  0  0  0  0  0  0  0  0  0  0  0
   70.6481  150.8386  -48.4265 H   0  0  0  0  0  0  0  0  0  0  0  0
   64.0996  155.5247  -49.2340 H   0  0  0  0  0  0  0  0  0  0  0  0
   66.4161  150.4133  -48.8768 H   0  0  0  0  0  0  0  0  0  0  0  0
   61.8586  151.8681  -43.0632 H   0  0  0  0  0  0  0  0  0  0  0  0
   62.5845  153.2714  -42.3376 H   0  0  0  0  0  0  0  0  0  0  0  0
   66.3581  148.8926  -46.9697 H   0  0  0  0  0  0  0  0  0  0  0  0
   71.8543  147.8133  -45.4271 H   0  0  0  0  0  0  0  0  0  0  0  0
   70.3564  147.1985  -46.1495 H   0  0  0  0  0  0  0  0  0  0  0  0
   70.2911  148.2257  -44.7035 H   0  0  0  0  0  0  0  0  0  0  0  0
   64.5702  152.5763  -47.0587 H   0  0  0  0  0  0  0  0  0  0  0  0
   63.1487  152.1368  -45.1580 H   0  0  0  0  0  0  0  0  0  0  0  0
   61.3520  155.9970  -45.5940 H   0  0  0  0  0  0  0  0  0  0  0  0
   62.7283  156.4148  -47.5675 H   0  0  0  0  0  0  0  0  0  0  0  0
  1 14  1  0
  1 15  2  0
  2 14  1  0
  2 29  1  0
  2 30  1  0
  3 15  1  0
  3 16  1  0
  3 32  1  0
  4 27  1  0
  4 34  1  0
  4 35  1  0
  5  6  2  0
  5  9  1  0
  5 28  1  0
  6  7  1  0
  6 25  1  0
  7 11  2  0
  7 31  1  0
  8  9  2  0
  8 11  1  0
  8 33  1  0
  9 36  1  0
 10 25  1  0
 10 37  1  0
 10 38  1  0
 10 39  1  0
 12 11  1  0
 12 13  1  0
 12 24  2  0
 13 14  2  0
 13 26  1  0
 15 26  1  0
 16 17  2  0
 16 21  1  0
 17 18  1  0
 17 40  1  0
 18 19  2  0
 18 41  1  0
 19 20  1  0
 19 27  1  0
 20 21  2  0
 20 42  1  0
 21 43  1  0
 22 27  2  0
 23 27  2  0
M  END
>  <lm5_entropy_jk>  (1) 
33.50945403317048

>  <number_of_rotatable_bonds>  (1) 
6

>  <IC50_NM>  (1) 
100

>  <charge>  (1) 
0

$$$$
