3RAL
     RDKit          3D

 43 45  0  0  1  0  0  0  0  0999 V2000
   65.9608  154.4151  -50.5126 N   0  0  0  0  0  0  0  0  0  0  0  0
   67.5218  153.5996  -52.0857 N   0  0  0  0  0  0  0  0  0  0  0  0
   64.5792  154.9090  -48.6775 N   0  0  0  0  0  0  0  0  0  0  0  0
   62.1229  152.8936  -42.8643 N   0  0  0  0  0  0  0  0  0  0  0  0
   68.3786  149.0884  -46.5409 C   0  0  0  0  0  0  0  0  0  0  0  0
   69.6098  149.5442  -46.9955 C   0  0  0  0  0  0  0  0  0  0  0  0
   69.6844  150.4313  -48.0718 C   0  0  0  0  0  0  0  0  0  0  0  0
   67.3049  150.2645  -48.3392 C   0  0  0  0  0  0  0  0  0  0  0  0
   67.2313  149.4498  -47.2317 C   0  0  0  0  0  0  0  0  0  0  0  0
   70.7410  147.9666  -45.6650 C   0  0  0  0  0  0  0  0  0  0  0  0
   68.5278  150.8093  -48.7322 C   0  0  0  0  0  0  0  0  0  0  0  0
   68.5453  151.8145  -49.8646 C   0  0  0  0  0  0  0  0  0  0  0  0
   67.5612  152.8616  -49.7975 C   0  0  0  0  0  0  0  0  0  0  0  0
   67.0377  153.6216  -50.8351 C   0  0  0  0  0  0  0  0  0  0  0  0
   65.6216  154.2289  -49.2574 C   0  0  0  0  0  0  0  0  0  0  0  0
   63.8685  154.5927  -47.4927 C   0  0  0  0  0  0  0  0  0  0  0  0
   64.0286  153.4340  -46.7311 C   0  0  0  0  0  0  0  0  0  0  0  0
   63.2687  153.2304  -45.5863 C   0  0  0  0  0  0  0  0  0  0  0  0
   62.3252  154.1628  -45.1854 C   0  0  0  0  0  0  0  0  0  0  0  0
   62.1455  155.3121  -45.9410 C   0  0  0  0  0  0  0  0  0  0  0  0
   62.9105  155.5202  -47.0720 C   0  0  0  0  0  0  0  0  0  0  0  0
   60.1216  153.0435  -44.4246 O   0  0  0  0  0  0  0  0  0  0  0  0
   60.8705  154.9917  -43.1173 O   0  0  0  0  0  0  0  0  0  0  0  0
   69.3523  151.7168  -50.7842 O   0  0  0  0  0  0  0  0  0  0  0  0
   70.7899  149.1636  -46.4319 O   0  0  0  0  0  0  0  0  0  0  0  0
   66.6335  153.1739  -48.3632 S   0  0  0  0  0  0  0  0  0  0  0  0
   61.2049  153.8022  -43.8582 S   0  0  0  0  0  0  0  0  0  0  0  0
   68.2922  148.4358  -45.6828 H   0  0  0  0  0  0  0  0  0  0  0  0
   67.1032  154.1526  -52.8281 H   0  0  0  0  0  0  0  0  0  0  0  0
   68.3157  153.0208  -52.2956 H   0  0  0  0  0  0  0  0  0  0  0  0
   70.6462  150.8155  -48.3709 H   0  0  0  0  0  0  0  0  0  0  0  0
   63.9950  155.3951  -49.3581 H   0  0  0  0  0  0  0  0  0  0  0  0
   66.4095  150.4960  -48.8889 H   0  0  0  0  0  0  0  0  0  0  0  0
   62.1162  151.8967  -43.1417 H   0  0  0  0  0  0  0  0  0  0  0  0
   61.9107  153.0471  -41.8956 H   0  0  0  0  0  0  0  0  0  0  0  0
   66.2667  149.1027  -46.8937 H   0  0  0  0  0  0  0  0  0  0  0  0
   71.7542  147.6016  -45.6326 H   0  0  0  0  0  0  0  0  0  0  0  0
   70.1063  147.2211  -46.1404 H   0  0  0  0  0  0  0  0  0  0  0  0
   70.3897  148.1494  -44.6489 H   0  0  0  0  0  0  0  0  0  0  0  0
   64.7093  152.6562  -47.0259 H   0  0  0  0  0  0  0  0  0  0  0  0
   63.4180  152.3193  -45.0197 H   0  0  0  0  0  0  0  0  0  0  0  0
   61.3948  156.0321  -45.6519 H   0  0  0  0  0  0  0  0  0  0  0  0
   62.7271  156.3937  -47.6781 H   0  0  0  0  0  0  0  0  0  0  0  0
  1 14  1  0
  1 15  2  0
  2 14  1  0
  2 29  1  0
  2 30  1  0
  3 15  1  0
  3 16  1  0
  3 32  1  0
  4 27  1  0
  4 34  1  0
  4 35  1  0
  5  6  2  0
  5  9  1  0
  5 28  1  0
  6  7  1  0
  6 25  1  0
  7 11  2  0
  7 31  1  0
  8  9  2  0
  8 11  1  0
  8 33  1  0
  9 36  1  0
 10 25  1  0
 10 37  1  0
 10 38  1  0
 10 39  1  0
 12 11  1  0
 12 13  1  0
 12 24  2  0
 13 14  2  0
 13 26  1  0
 15 26  1  0
 16 17  2  0
 16 21  1  0
 17 18  1  0
 17 40  1  0
 18 19  2  0
 18 41  1  0
 19 20  1  0
 19 27  1  0
 20 21  2  0
 20 42  1  0
 21 43  1  0
 22 27  2  0
 23 27  2  0
M  END
>  <lm5_entropy_jk>  (1) 
33.50945403317048

>  <number_of_rotatable_bonds>  (1) 
6

>  <IC50_NM>  (1) 
100

>  <charge>  (1) 
0

$$$$
