3RMF
     RDKit          3D

 45 48  0  0  0  0  0  0  0  0999 V2000
   65.8934  154.4354  -50.5667 N   0  0  0  0  0  0  0  0  0  0  0  0
   64.5668  155.0400  -48.7201 N   0  0  0  0  0  0  0  0  0  0  0  0
   67.4049  153.5104  -52.1201 N   0  0  0  0  0  0  0  0  0  0  0  0
   62.1506  152.9777  -42.9267 N   0  0  0  0  0  0  0  0  0  0  0  0
   67.4933  152.8877  -49.7966 C   0  0  0  0  0  0  0  0  0  0  0  0
   66.9488  153.6028  -50.8658 C   0  0  0  0  0  0  0  0  0  0  0  0
   65.5946  154.3324  -49.2962 C   0  0  0  0  0  0  0  0  0  0  0  0
   63.8342  154.7046  -47.5497 C   0  0  0  0  0  0  0  0  0  0  0  0
   68.4244  151.7925  -49.8801 C   0  0  0  0  0  0  0  0  0  0  0  0
   68.6825  150.9166  -48.6761 C   0  0  0  0  0  0  0  0  0  0  0  0
   69.9651  150.3280  -48.5337 C   0  0  0  0  0  0  0  0  0  0  0  0
   70.2549  149.5554  -47.4476 C   0  0  0  0  0  0  0  0  0  0  0  0
   69.3079  149.3576  -46.4114 C   0  0  0  0  0  0  0  0  0  0  0  0
   68.0227  149.9215  -46.5613 C   0  0  0  0  0  0  0  0  0  0  0  0
   67.7206  150.6399  -47.7391 C   0  0  0  0  0  0  0  0  0  0  0  0
   62.9061  155.6425  -47.0940 C   0  0  0  0  0  0  0  0  0  0  0  0
   62.1394  155.4123  -45.9686 C   0  0  0  0  0  0  0  0  0  0  0  0
   62.2936  154.2309  -45.2600 C   0  0  0  0  0  0  0  0  0  0  0  0
   63.2017  153.2810  -45.7042 C   0  0  0  0  0  0  0  0  0  0  0  0
   63.9563  153.5046  -46.8467 C   0  0  0  0  0  0  0  0  0  0  0  0
   69.6047  148.6309  -45.2278 C   0  0  0  0  0  0  0  0  0  0  0  0
   68.6905  148.5495  -44.2178 C   0  0  0  0  0  0  0  0  0  0  0  0
   67.4195  149.1564  -44.3521 C   0  0  0  0  0  0  0  0  0  0  0  0
   67.0844  149.8000  -45.5055 C   0  0  0  0  0  0  0  0  0  0  0  0
   69.0392  151.5632  -50.9203 O   0  0  0  0  0  0  0  0  0  0  0  0
   60.1250  153.0674  -44.4520 O   0  0  0  0  0  0  0  0  0  0  0  0
   60.8539  155.0513  -43.1828 O   0  0  0  0  0  0  0  0  0  0  0  0
   66.6441  153.3545  -48.3549 S   0  0  0  0  0  0  0  0  0  0  0  0
   61.1983  153.8564  -43.9117 S   0  0  0  0  0  0  0  0  0  0  0  0
   63.9891  155.5323  -49.4020 H   0  0  0  0  0  0  0  0  0  0  0  0
   67.0239  154.0771  -52.8731 H   0  0  0  0  0  0  0  0  0  0  0  0
   68.1626  152.8767  -52.3055 H   0  0  0  0  0  0  0  0  0  0  0  0
   62.1260  151.9735  -43.1689 H   0  0  0  0  0  0  0  0  0  0  0  0
   61.9844  153.1659  -41.9550 H   0  0  0  0  0  0  0  0  0  0  0  0
   70.6924  150.4914  -49.3122 H   0  0  0  0  0  0  0  0  0  0  0  0
   71.2136  149.0678  -47.3494 H   0  0  0  0  0  0  0  0  0  0  0  0
   66.7043  150.9749  -47.8696 H   0  0  0  0  0  0  0  0  0  0  0  0
   62.7456  156.5403  -47.6691 H   0  0  0  0  0  0  0  0  0  0  0  0
   61.4090  156.1382  -45.6471 H   0  0  0  0  0  0  0  0  0  0  0  0
   63.3219  152.3471  -45.1705 H   0  0  0  0  0  0  0  0  0  0  0  0
   64.6072  152.7251  -47.1945 H   0  0  0  0  0  0  0  0  0  0  0  0
   70.5565  148.1253  -45.1472 H   0  0  0  0  0  0  0  0  0  0  0  0
   68.9201  148.0041  -43.3139 H   0  0  0  0  0  0  0  0  0  0  0  0
   66.7007  149.0939  -43.5481 H   0  0  0  0  0  0  0  0  0  0  0  0
   66.0984  150.2332  -45.6207 H   0  0  0  0  0  0  0  0  0  0  0  0
  1  7  2  0
  2  8  1  0
  2 30  1  0
  3  6  1  0
  3 31  1  0
  3 32  1  0
  4 33  1  0
  4 34  1  0
  5 28  1  0
  6  1  1  0
  6  5  2  0
  7  2  1  0
  7 28  1  0
  8 16  2  0
  8 20  1  0
  9  5  1  0
  9 10  1  0
 10 11  2  0
 10 15  1  0
 11 12  1  0
 11 35  1  0
 12 13  2  0
 12 36  1  0
 13 21  1  0
 14 13  1  0
 14 24  1  0
 15 14  2  0
 15 37  1  0
 16 17  1  0
 16 38  1  0
 17 18  2  0
 17 39  1  0
 18 29  1  0
 19 18  1  0
 19 40  1  0
 20 19  2  0
 20 41  1  0
 21 22  2  0
 21 42  1  0
 22 43  1  0
 23 22  1  0
 23 44  1  0
 24 23  2  0
 24 45  1  0
 25  9  2  0
 26 29  2  0
 29 27  2  0
 29  4  1  0
M  END
>  <lm5_entropy_jk>  (1) 
22.397995528352578

>  <number_of_rotatable_bonds>  (1) 
5

>  <IC50_NM>  (1) 
82000

>  <charge>  (1) 
0

$$$$
