3QTW
     RDKit          3D

 33 35  0  0  1  0  0  0  0  0999 V2000
   65.5703  154.1601  -50.5295 N   0  0  0  0  0  0  0  0  0  0  0  0
   67.3399  153.4600  -51.8872 N   0  0  0  0  0  0  0  0  0  0  0  0
   70.3284  149.8002  -47.2601 N   0  0  0  0  0  0  0  0  0  0  0  0
   63.9475  154.5617  -48.9218 N   0  0  0  0  0  0  0  0  0  0  0  0
   66.7263  153.4477  -50.7073 C   0  0  0  0  0  0  0  0  0  0  0  0
   67.1682  152.7124  -49.6003 C   0  0  0  0  0  0  0  0  0  0  0  0
   68.3396  151.9006  -49.6122 C   0  0  0  0  0  0  0  0  0  0  0  0
   68.6292  150.9050  -48.5243 C   0  0  0  0  0  0  0  0  0  0  0  0
   69.9536  150.6845  -48.1824 C   0  0  0  0  0  0  0  0  0  0  0  0
   69.3806  149.0567  -46.6873 C   0  0  0  0  0  0  0  0  0  0  0  0
   68.0308  149.1865  -46.9728 C   0  0  0  0  0  0  0  0  0  0  0  0
   67.6515  150.1353  -47.9037 C   0  0  0  0  0  0  0  0  0  0  0  0
   65.0838  153.9687  -49.3200 C   0  0  0  0  0  0  0  0  0  0  0  0
   63.2132  154.3609  -47.7365 C   0  0  0  0  0  0  0  0  0  0  0  0
   62.4160  155.4188  -47.3045 C   0  0  0  0  0  0  0  0  0  0  0  0
   61.6251  155.2801  -46.1791 C   0  0  0  0  0  0  0  0  0  0  0  0
   61.6225  154.0936  -45.4613 C   0  0  0  0  0  0  0  0  0  0  0  0
   62.4068  153.0391  -45.8964 C   0  0  0  0  0  0  0  0  0  0  0  0
   63.1919  153.1571  -47.0342 C   0  0  0  0  0  0  0  0  0  0  0  0
   69.1499  151.9750  -50.5423 O   0  0  0  0  0  0  0  0  0  0  0  0
   66.0344  152.9333  -48.2917 S   0  0  0  0  0  0  0  0  0  0  0  0
   67.0166  154.0362  -52.6520 H   0  0  0  0  0  0  0  0  0  0  0  0
   68.2125  152.9548  -51.9240 H   0  0  0  0  0  0  0  0  0  0  0  0
   70.7261  151.2509  -48.6852 H   0  0  0  0  0  0  0  0  0  0  0  0
   69.7142  148.3079  -45.9808 H   0  0  0  0  0  0  0  0  0  0  0  0
   67.3008  148.5474  -46.5050 H   0  0  0  0  0  0  0  0  0  0  0  0
   66.6116  150.2435  -48.1730 H   0  0  0  0  0  0  0  0  0  0  0  0
   63.5459  155.2492  -49.5626 H   0  0  0  0  0  0  0  0  0  0  0  0
   62.3886  156.3260  -47.8873 H   0  0  0  0  0  0  0  0  0  0  0  0
   60.9824  156.0967  -45.8875 H   0  0  0  0  0  0  0  0  0  0  0  0
   60.9961  153.9762  -44.5905 H   0  0  0  0  0  0  0  0  0  0  0  0
   62.3724  152.1030  -45.3633 H   0  0  0  0  0  0  0  0  0  0  0  0
   63.7411  152.3026  -47.3894 H   0  0  0  0  0  0  0  0  0  0  0  0
  1  5  1  0
  1 13  2  0
  2  5  1  0
  2 22  1  0
  2 23  1  0
  3  9  2  0
  3 10  1  0
  4 13  1  0
  4 14  1  0
  4 28  1  0
  5  6  2  0
  6 21  1  0
  7  6  1  0
  7  8  1  0
  7 20  2  0
  8  9  1  0
  8 12  2  0
  9 24  1  0
 10 11  2  0
 10 25  1  0
 11 12  1  0
 11 26  1  0
 12 27  1  0
 13 21  1  0
 14 15  2  0
 14 19  1  0
 15 16  1  0
 15 29  1  0
 16 17  2  0
 16 30  1  0
 17 18  1  0
 17 31  1  0
 18 19  2  0
 18 32  1  0
 19 33  1  0
M  END
>  <lm5_entropy_jk>  (1) 
20.66385753466715

>  <number_of_rotatable_bonds>  (1) 
4

>  <IC50_NM>  (1) 
650

>  <charge>  (1) 
0

$$$$
