3S00
     RDKit          3D

 28 29  0  0  1  0  0  0  0  0999 V2000
   65.6445  154.0925  -50.2294 N   0  0  0  0  0  0  0  0  0  0  0  0
   67.2471  153.1321  -51.6325 N   0  0  0  0  0  0  0  0  0  0  0  0
   64.2163  154.7280  -48.4794 N   0  0  0  0  0  0  0  0  0  0  0  0
   66.7132  153.2529  -50.4189 C   0  0  0  0  0  0  0  0  0  0  0  0
   67.1495  152.5384  -49.2950 C   0  0  0  0  0  0  0  0  0  0  0  0
   68.2893  151.6764  -49.3038 C   0  0  0  0  0  0  0  0  0  0  0  0
   68.5898  150.7739  -48.1597 C   0  0  0  0  0  0  0  0  0  0  0  0
   65.2209  154.0197  -48.9841 C   0  0  0  0  0  0  0  0  0  0  0  0
   63.7982  154.5887  -47.0951 C   0  0  0  0  0  0  0  0  0  0  0  0
   62.8280  155.6721  -46.7394 C   0  0  0  0  0  0  0  0  0  0  0  0
   62.8990  156.3862  -45.6278 C   0  0  0  0  0  0  0  0  0  0  0  0
   69.7707  149.2983  -46.6135 C   0  0  0  0  0  0  0  0  0  0  0  0
   68.4428  149.3468  -46.3285 C   0  0  0  0  0  0  0  0  0  0  0  0
   67.7641  150.2014  -47.2323 C   0  0  0  0  0  0  0  0  0  0  0  0
   69.0701  151.6589  -50.2656 O   0  0  0  0  0  0  0  0  0  0  0  0
   70.9719  148.4168  -45.7485 Cl  0  0  0  0  0  0  0  0  0  0  0  0
   66.0782  152.8954  -47.9636 S   0  0  0  0  0  0  0  0  0  0  0  0
   70.2198  150.2357  -47.9809 S   0  0  0  0  0  0  0  0  0  0  0  0
   66.9830  153.7645  -52.3752 H   0  0  0  0  0  0  0  0  0  0  0  0
   68.1179  152.6210  -51.6647 H   0  0  0  0  0  0  0  0  0  0  0  0
   63.6751  155.3340  -49.0932 H   0  0  0  0  0  0  0  0  0  0  0  0
   64.6666  154.6520  -46.4428 H   0  0  0  0  0  0  0  0  0  0  0  0
   63.3407  153.6053  -46.9391 H   0  0  0  0  0  0  0  0  0  0  0  0
   67.9638  148.7772  -45.5518 H   0  0  0  0  0  0  0  0  0  0  0  0
   66.6960  150.3355  -47.2132 H   0  0  0  0  0  0  0  0  0  0  0  0
   62.1664  157.1528  -45.4183 H   0  0  0  0  0  0  0  0  0  0  0  0
   63.6794  156.2282  -44.8927 H   0  0  0  0  0  0  0  0  0  0  0  0
   62.0437  155.8633  -47.4608 H   0  0  0  0  0  0  0  0  0  0  0  0
  1  4  1  0
  1  8  2  0
  2  4  1  0
  2 19  1  0
  2 20  1  0
  3  8  1  0
  3  9  1  0
  3 21  1  0
  4  5  2  0
  5  6  1  0
  5 17  1  0
  6  7  1  0
  6 15  2  0
  7 14  2  0
  7 18  1  0
  8 17  1  0
  9 10  1  0
  9 22  1  0
  9 23  1  0
 10 11  2  0
 10 28  1  0
 11 26  1  0
 11 27  1  0
 12 13  2  0
 12 16  1  0
 12 18  1  0
 13 14  1  0
 13 24  1  0
 14 25  1  0
M  END
>  <lm5_entropy_jk>  (1) 
31.418959509749985

>  <number_of_rotatable_bonds>  (1) 
5

>  <IC50_NM>  (1) 
12000

>  <charge>  (1) 
0

$$$$
