3QTX
     RDKit          3D

 41 43  0  0  1  0  0  0  0  0999 V2000
   66.0479  154.2567  -50.3791 N   0  0  0  0  0  0  0  0  0  0  0  0
   67.6250  153.4657  -51.9408 N   0  0  0  0  0  0  0  0  0  0  0  0
   64.6202  154.7323  -48.5831 N   0  0  0  0  0  0  0  0  0  0  0  0
   71.1529  149.2994  -46.1051 N   0  0  0  0  0  0  0  0  0  0  0  0
   62.0969  152.8222  -42.7542 N   0  0  0  0  0  0  0  0  0  0  0  0
   67.1232  153.4610  -50.6951 C   0  0  0  0  0  0  0  0  0  0  0  0
   67.6220  152.6807  -49.6554 C   0  0  0  0  0  0  0  0  0  0  0  0
   68.6312  151.6624  -49.7080 C   0  0  0  0  0  0  0  0  0  0  0  0
   68.6962  150.6955  -48.5384 C   0  0  0  0  0  0  0  0  0  0  0  0
   69.8958  150.4458  -47.8868 C   0  0  0  0  0  0  0  0  0  0  0  0
   69.8945  149.5723  -46.8126 C   0  0  0  0  0  0  0  0  0  0  0  0
   68.7588  148.9316  -46.3564 C   0  0  0  0  0  0  0  0  0  0  0  0
   67.5725  149.1779  -47.0208 C   0  0  0  0  0  0  0  0  0  0  0  0
   67.5455  150.0373  -48.1055 C   0  0  0  0  0  0  0  0  0  0  0  0
   65.6760  154.0518  -49.1372 C   0  0  0  0  0  0  0  0  0  0  0  0
   63.9061  154.4511  -47.3933 C   0  0  0  0  0  0  0  0  0  0  0  0
   62.9644  155.4017  -46.9862 C   0  0  0  0  0  0  0  0  0  0  0  0
   62.1972  155.2218  -45.8524 C   0  0  0  0  0  0  0  0  0  0  0  0
   62.3629  154.0818  -45.0786 C   0  0  0  0  0  0  0  0  0  0  0  0
   63.2970  153.1330  -45.4619 C   0  0  0  0  0  0  0  0  0  0  0  0
   64.0528  153.3033  -46.6136 C   0  0  0  0  0  0  0  0  0  0  0  0
   69.4162  151.5481  -50.6417 O   0  0  0  0  0  0  0  0  0  0  0  0
   72.1324  149.9308  -46.4372 O   0  0  0  0  0  0  0  0  0  0  0  0
   71.1309  148.4710  -45.2214 O   0  0  0  0  0  0  0  0  0  0  0  0
   60.1261  153.0181  -44.3555 O   0  0  0  0  0  0  0  0  0  0  0  0
   60.8934  154.9455  -43.0313 O   0  0  0  0  0  0  0  0  0  0  0  0
   66.6620  152.9705  -48.2352 S   0  0  0  0  0  0  0  0  0  0  0  0
   61.2174  153.7484  -43.7662 S   0  0  0  0  0  0  0  0  0  0  0  0
   67.2184  154.0421  -52.6735 H   0  0  0  0  0  0  0  0  0  0  0  0
   68.4080  152.8759  -52.1598 H   0  0  0  0  0  0  0  0  0  0  0  0
   70.8103  150.9235  -48.1916 H   0  0  0  0  0  0  0  0  0  0  0  0
   68.8083  148.2476  -45.5219 H   0  0  0  0  0  0  0  0  0  0  0  0
   66.6673  148.7012  -46.6807 H   0  0  0  0  0  0  0  0  0  0  0  0
   66.6104  150.1902  -48.6214 H   0  0  0  0  0  0  0  0  0  0  0  0
   64.0491  155.2230  -49.2700 H   0  0  0  0  0  0  0  0  0  0  0  0
   62.7990  156.2731  -47.6013 H   0  0  0  0  0  0  0  0  0  0  0  0
   61.4583  155.9576  -45.5734 H   0  0  0  0  0  0  0  0  0  0  0  0
   63.4447  152.2333  -44.8783 H   0  0  0  0  0  0  0  0  0  0  0  0
   64.7173  152.5080  -46.8990 H   0  0  0  0  0  0  0  0  0  0  0  0
   62.1010  151.8302  -43.0485 H   0  0  0  0  0  0  0  0  0  0  0  0
   61.8518  152.9579  -41.7906 H   0  0  0  0  0  0  0  0  0  0  0  0
  1  6  1  0
  1 15  2  0
  2  6  1  0
  2 29  1  0
  2 30  1  0
  3 15  1  0
  3 16  1  0
  3 35  1  0
  4 11  1  0
  4 23  2  0
  4 24  1  0
  5 28  1  0
  5 40  1  0
  5 41  1  0
  6  7  2  0
  7 27  1  0
  8  7  1  0
  8  9  1  0
  8 22  2  0
  9 10  2  0
  9 14  1  0
 10 11  1  0
 10 31  1  0
 11 12  2  0
 12 13  1  0
 12 32  1  0
 13 14  2  0
 13 33  1  0
 14 34  1  0
 15 27  1  0
 16 17  2  0
 16 21  1  0
 17 18  1  0
 17 36  1  0
 18 19  2  0
 18 37  1  0
 19 20  1  0
 19 28  1  0
 20 21  2  0
 20 38  1  0
 21 39  1  0
 25 28  2  0
 26 28  2  0
M  CHG  2   4   1  24  -1
M  END
>  <lm5_entropy_jk>  (1) 
24.48849005177307

>  <number_of_rotatable_bonds>  (1) 
6

>  <IC50_NM>  (1) 
70

>  <charge>  (1) 
0

$$$$
