3QTQ
     RDKit          3D

 30 31  0  0  1  0  0  0  0  0999 V2000
   66.1137  154.1771  -50.6583 N   0  0  0  0  0  0  0  0  0  0  0  0
   67.7756  153.1926  -51.9641 N   0  0  0  0  0  0  0  0  0  0  0  0
   70.4605  149.7028  -47.0138 N   0  0  0  0  0  0  0  0  0  0  0  0
   64.6915  154.9651  -48.9888 N   0  0  0  0  0  0  0  0  0  0  0  0
   67.1570  153.2993  -50.7944 C   0  0  0  0  0  0  0  0  0  0  0  0
   67.5137  152.5742  -49.6462 C   0  0  0  0  0  0  0  0  0  0  0  0
   68.5908  151.6438  -49.6077 C   0  0  0  0  0  0  0  0  0  0  0  0
   68.8330  150.7654  -48.4091 C   0  0  0  0  0  0  0  0  0  0  0  0
   70.1404  150.5200  -48.0200 C   0  0  0  0  0  0  0  0  0  0  0  0
   69.4661  149.0693  -46.3886 C   0  0  0  0  0  0  0  0  0  0  0  0
   68.1297  149.2341  -46.7143 C   0  0  0  0  0  0  0  0  0  0  0  0
   67.8097  150.1027  -47.7409 C   0  0  0  0  0  0  0  0  0  0  0  0
   65.6577  154.1616  -49.4216 C   0  0  0  0  0  0  0  0  0  0  0  0
   64.1132  154.8850  -47.6624 C   0  0  0  0  0  0  0  0  0  0  0  0
   63.0210  153.8606  -47.5453 C   0  0  0  0  0  0  0  0  0  0  0  0
   62.9939  152.9297  -46.6066 C   0  0  0  0  0  0  0  0  0  0  0  0
   69.3612  151.5150  -50.5686 O   0  0  0  0  0  0  0  0  0  0  0  0
   66.4285  153.0190  -48.3465 S   0  0  0  0  0  0  0  0  0  0  0  0
   67.4790  153.7551  -52.7489 H   0  0  0  0  0  0  0  0  0  0  0  0
   68.5693  152.5704  -51.9895 H   0  0  0  0  0  0  0  0  0  0  0  0
   70.9474  151.0031  -48.5538 H   0  0  0  0  0  0  0  0  0  0  0  0
   69.7491  148.3823  -45.6023 H   0  0  0  0  0  0  0  0  0  0  0  0
   67.3618  148.6706  -46.2083 H   0  0  0  0  0  0  0  0  0  0  0  0
   66.7808  150.2306  -48.0460 H   0  0  0  0  0  0  0  0  0  0  0  0
   64.1812  155.5386  -49.6557 H   0  0  0  0  0  0  0  0  0  0  0  0
   63.7160  155.8733  -47.4450 H   0  0  0  0  0  0  0  0  0  0  0  0
   64.8987  154.6762  -46.9438 H   0  0  0  0  0  0  0  0  0  0  0  0
   62.1805  152.2243  -46.5309 H   0  0  0  0  0  0  0  0  0  0  0  0
   63.7908  152.8384  -45.8786 H   0  0  0  0  0  0  0  0  0  0  0  0
   62.2288  153.9392  -48.2802 H   0  0  0  0  0  0  0  0  0  0  0  0
  1  5  1  0
  1 13  2  0
  2  5  1  0
  2 19  1  0
  2 20  1  0
  3  9  2  0
  3 10  1  0
  4 13  1  0
  4 14  1  0
  4 25  1  0
  5  6  2  0
  6 18  1  0
  7  6  1  0
  7  8  1  0
  7 17  2  0
  8  9  1  0
  8 12  2  0
  9 21  1  0
 10 11  2  0
 10 22  1  0
 11 12  1  0
 11 23  1  0
 12 24  1  0
 13 18  1  0
 14 15  1  0
 14 26  1  0
 14 27  1  0
 15 16  2  0
 15 30  1  0
 16 28  1  0
 16 29  1  0
M  END
>  <lm5_entropy_jk>  (1) 
31.50116356131297

>  <number_of_rotatable_bonds>  (1) 
5

>  <IC50_NM>  (1) 
3100

>  <charge>  (1) 
0

$$$$
