3RPY
     RDKit          3D

 31 32  0  0  0  0  0  0  0  0999 V2000
   68.7660  151.8974  -49.8165 C   0  0  0  0  0  0  0  0  0  0  0  0
   65.9808  154.2913  -50.4373 N   0  0  0  0  0  0  0  0  0  0  0  0
   60.1440  153.0040  -44.3726 O   0  0  0  0  0  0  0  0  0  0  0  0
   66.7116  153.0586  -48.2920 S   0  0  0  0  0  0  0  0  0  0  0  0
   67.5464  153.5127  -52.0246 N   0  0  0  0  0  0  0  0  0  0  0  0
   60.9006  154.9429  -43.0547 O   0  0  0  0  0  0  0  0  0  0  0  0
   61.2301  153.7510  -43.7960 S   0  0  0  0  0  0  0  0  0  0  0  0
   64.6027  154.7807  -48.6194 N   0  0  0  0  0  0  0  0  0  0  0  0
   62.1350  152.8341  -42.7997 N   0  0  0  0  0  0  0  0  0  0  0  0
   67.6445  152.8040  -49.7321 C   0  0  0  0  0  0  0  0  0  0  0  0
   67.0774  153.5255  -50.7673 C   0  0  0  0  0  0  0  0  0  0  0  0
   65.6538  154.1021  -49.1852 C   0  0  0  0  0  0  0  0  0  0  0  0
   63.8881  154.5006  -47.4328 C   0  0  0  0  0  0  0  0  0  0  0  0
   64.0361  153.3422  -46.6715 C   0  0  0  0  0  0  0  0  0  0  0  0
   63.2885  153.1559  -45.5179 C   0  0  0  0  0  0  0  0  0  0  0  0
   62.3589  154.1027  -45.1173 C   0  0  0  0  0  0  0  0  0  0  0  0
   62.1886  155.2522  -45.8748 C   0  0  0  0  0  0  0  0  0  0  0  0
   62.9492  155.4481  -47.0112 C   0  0  0  0  0  0  0  0  0  0  0  0
   69.4732  151.8162  -50.8163 O   0  0  0  0  0  0  0  0  0  0  0  0
   69.0724  151.1505  -48.6934 N   0  0  0  0  0  0  0  0  0  0  0  0
   67.1304  154.0835  -52.7530 H   0  0  0  0  0  0  0  0  0  0  0  0
   68.3774  152.9817  -52.2198 H   0  0  0  0  0  0  0  0  0  0  0  0
   64.0363  155.2794  -49.3047 H   0  0  0  0  0  0  0  0  0  0  0  0
   62.1244  151.8387  -43.0820 H   0  0  0  0  0  0  0  0  0  0  0  0
   61.9136  152.9853  -41.8326 H   0  0  0  0  0  0  0  0  0  0  0  0
   64.6924  152.5501  -46.9830 H   0  0  0  0  0  0  0  0  0  0  0  0
   63.4360  152.2461  -44.9508 H   0  0  0  0  0  0  0  0  0  0  0  0
   61.4480  155.9804  -45.5803 H   0  0  0  0  0  0  0  0  0  0  0  0
   62.7729  156.3260  -47.6146 H   0  0  0  0  0  0  0  0  0  0  0  0
   69.6816  150.3762  -48.9018 H   0  0  0  0  0  0  0  0  0  0  0  0
   68.3389  150.9446  -48.0319 H   0  0  0  0  0  0  0  0  0  0  0  0
  1 10  1  0
  1 20  1  0
  2 12  2  0
  3  7  2  0
  5 11  1  0
  5 21  1  0
  5 22  1  0
  7  6  2  0
  7  9  1  0
  8 13  1  0
  8 23  1  0
  9 24  1  0
  9 25  1  0
 10  4  1  0
 11  2  1  0
 11 10  2  0
 12  8  1  0
 12  4  1  0
 13 18  1  0
 13 14  2  0
 14 15  1  0
 14 26  1  0
 15 16  2  0
 15 27  1  0
 16  7  1  0
 17 16  1  0
 17 28  1  0
 18 17  2  0
 18 29  1  0
 19  1  2  0
 20 30  1  0
 20 31  1  0
M  END
>  <lm5_entropy_jk>  (1) 
19.643205717801273

>  <number_of_rotatable_bonds>  (1) 
4

>  <IC50_NM>  (1) 
4800

>  <charge>  (1) 
0

$$$$
