3S0O
     RDKit          3D

 30 31  0  0  1  0  0  0  0  0999 V2000
   65.7799  154.3505  -50.6218 N   0  0  0  0  0  0  0  0  0  0  0  0
   67.5249  153.3440  -51.7987 N   0  0  0  0  0  0  0  0  0  0  0  0
   68.1469  151.7625  -46.9086 N   0  0  0  0  0  0  0  0  0  0  0  0
   64.1882  155.1046  -49.1010 N   0  0  0  0  0  0  0  0  0  0  0  0
   66.8559  153.5071  -50.6603 C   0  0  0  0  0  0  0  0  0  0  0  0
   67.1876  152.8765  -49.4491 C   0  0  0  0  0  0  0  0  0  0  0  0
   68.2094  151.8936  -49.3408 C   0  0  0  0  0  0  0  0  0  0  0  0
   68.4126  151.1380  -48.0562 C   0  0  0  0  0  0  0  0  0  0  0  0
   68.3177  151.0666  -45.7874 C   0  0  0  0  0  0  0  0  0  0  0  0
   68.7606  149.7521  -45.7609 C   0  0  0  0  0  0  0  0  0  0  0  0
   69.0505  149.1212  -46.9581 C   0  0  0  0  0  0  0  0  0  0  0  0
   68.8799  149.8346  -48.1319 C   0  0  0  0  0  0  0  0  0  0  0  0
   65.2366  154.3481  -49.4164 C   0  0  0  0  0  0  0  0  0  0  0  0
   63.5472  155.1398  -47.8012 C   0  0  0  0  0  0  0  0  0  0  0  0
   62.6394  153.9730  -47.5368 C   0  0  0  0  0  0  0  0  0  0  0  0
   62.6933  153.2405  -46.4379 C   0  0  0  0  0  0  0  0  0  0  0  0
   68.9419  151.5989  -50.2942 O   0  0  0  0  0  0  0  0  0  0  0  0
   65.9943  153.3107  -48.2407 S   0  0  0  0  0  0  0  0  0  0  0  0
   67.2237  153.8292  -52.6305 H   0  0  0  0  0  0  0  0  0  0  0  0
   68.2725  152.6687  -51.7893 H   0  0  0  0  0  0  0  0  0  0  0  0
   68.1024  151.5874  -44.8642 H   0  0  0  0  0  0  0  0  0  0  0  0
   68.8636  149.2339  -44.8192 H   0  0  0  0  0  0  0  0  0  0  0  0
   69.3740  148.0928  -46.9826 H   0  0  0  0  0  0  0  0  0  0  0  0
   69.0909  149.4048  -49.0965 H   0  0  0  0  0  0  0  0  0  0  0  0
   63.7303  155.6430  -49.8338 H   0  0  0  0  0  0  0  0  0  0  0  0
   62.9543  156.0515  -47.7981 H   0  0  0  0  0  0  0  0  0  0  0  0
   64.2969  155.2222  -47.0140 H   0  0  0  0  0  0  0  0  0  0  0  0
   61.9023  153.7860  -48.3093 H   0  0  0  0  0  0  0  0  0  0  0  0
   63.4376  153.4294  -45.6746 H   0  0  0  0  0  0  0  0  0  0  0  0
   62.0008  152.4341  -46.2520 H   0  0  0  0  0  0  0  0  0  0  0  0
  1  5  1  0
  1 13  2  0
  2  5  1  0
  2 19  1  0
  2 20  1  0
  3  8  2  0
  3  9  1  0
  4 13  1  0
  4 14  1  0
  4 25  1  0
  5  6  2  0
  6 18  1  0
  7  6  1  0
  7  8  1  0
  7 17  2  0
  8 12  1  0
  9 10  2  0
  9 21  1  0
 10 11  1  0
 10 22  1  0
 11 12  2  0
 11 23  1  0
 12 24  1  0
 13 18  1  0
 14 15  1  0
 14 26  1  0
 14 27  1  0
 15 16  2  0
 15 28  1  0
 16 29  1  0
 16 30  1  0
M  END
>  <lm5_entropy_jk>  (1) 
21.884956070842478

>  <number_of_rotatable_bonds>  (1) 
5

>  <IC50_NM>  (1) 
33000

>  <charge>  (1) 
0

$$$$
