3QU0
     RDKit          3D

 38 40  0  0  0  0  0  0  0  0999 V2000
   65.9211  154.3705  -50.4124 N   0  0  0  0  0  0  0  0  0  0  0  0
   64.6009  154.7994  -48.5611 N   0  0  0  0  0  0  0  0  0  0  0  0
   70.9994  150.1021  -47.7539 N   0  0  0  0  0  0  0  0  0  0  0  0
   67.3739  153.6050  -52.0761 N   0  0  0  0  0  0  0  0  0  0  0  0
   61.7878  152.7799  -42.6916 N   0  0  0  0  0  0  0  0  0  0  0  0
   67.5633  152.8140  -49.8100 C   0  0  0  0  0  0  0  0  0  0  0  0
   66.9795  153.5947  -50.8062 C   0  0  0  0  0  0  0  0  0  0  0  0
   65.6289  154.1340  -49.1565 C   0  0  0  0  0  0  0  0  0  0  0  0
   63.8527  154.4837  -47.4151 C   0  0  0  0  0  0  0  0  0  0  0  0
   68.6641  151.9339  -50.0198 C   0  0  0  0  0  0  0  0  0  0  0  0
   69.1044  150.9947  -48.9344 C   0  0  0  0  0  0  0  0  0  0  0  0
   68.2402  150.1784  -48.2172 C   0  0  0  0  0  0  0  0  0  0  0  0
   68.7783  149.3208  -47.2734 C   0  0  0  0  0  0  0  0  0  0  0  0
   70.1485  149.3207  -47.0744 C   0  0  0  0  0  0  0  0  0  0  0  0
   70.4662  150.8973  -48.6767 C   0  0  0  0  0  0  0  0  0  0  0  0
   63.9480  153.2838  -46.7106 C   0  0  0  0  0  0  0  0  0  0  0  0
   63.1478  153.0428  -45.6017 C   0  0  0  0  0  0  0  0  0  0  0  0
   62.2477  154.0056  -45.1655 C   0  0  0  0  0  0  0  0  0  0  0  0
   62.1381  155.1994  -45.8677 C   0  0  0  0  0  0  0  0  0  0  0  0
   62.9228  155.4318  -46.9788 C   0  0  0  0  0  0  0  0  0  0  0  0
   69.2943  151.9458  -51.0775 O   0  0  0  0  0  0  0  0  0  0  0  0
   60.0124  152.9737  -44.3688 O   0  0  0  0  0  0  0  0  0  0  0  0
   60.7992  155.0036  -43.2174 O   0  0  0  0  0  0  0  0  0  0  0  0
   66.6735  153.0393  -48.3276 S   0  0  0  0  0  0  0  0  0  0  0  0
   61.0990  153.7318  -43.8142 S   0  0  0  0  0  0  0  0  0  0  0  0
   64.1501  155.4497  -49.1858 H   0  0  0  0  0  0  0  0  0  0  0  0
   66.9467  154.2207  -52.7443 H   0  0  0  0  0  0  0  0  0  0  0  0
   68.1925  153.0578  -52.2952 H   0  0  0  0  0  0  0  0  0  0  0  0
   61.9525  151.7890  -43.0303 H   0  0  0  0  0  0  0  0  0  0  0  0
   62.5893  153.1847  -42.2238 H   0  0  0  0  0  0  0  0  0  0  0  0
   67.1747  150.1802  -48.4060 H   0  0  0  0  0  0  0  0  0  0  0  0
   68.1466  148.6482  -46.7081 H   0  0  0  0  0  0  0  0  0  0  0  0
   70.5878  148.6679  -46.3309 H   0  0  0  0  0  0  0  0  0  0  0  0
   71.1530  151.5133  -49.2452 H   0  0  0  0  0  0  0  0  0  0  0  0
   64.6231  152.5072  -47.0289 H   0  0  0  0  0  0  0  0  0  0  0  0
   63.2101  152.0890  -45.0944 H   0  0  0  0  0  0  0  0  0  0  0  0
   61.4185  155.9428  -45.5562 H   0  0  0  0  0  0  0  0  0  0  0  0
   62.7832  156.3444  -47.5358 H   0  0  0  0  0  0  0  0  0  0  0  0
  1  8  2  0
  2  9  1  0
  2 26  1  0
  3 14  2  0
  4  7  1  0
  4 27  1  0
  4 28  1  0
  5 29  1  0
  5 30  1  0
  6 24  1  0
  7  1  1  0
  7  6  2  0
  8  2  1  0
  8 24  1  0
  9 20  1  0
  9 16  2  0
 10  6  1  0
 10 11  1  0
 11 15  2  0
 11 12  1  0
 12 13  2  0
 12 31  1  0
 13 14  1  0
 13 32  1  0
 14 33  1  0
 15  3  1  0
 15 34  1  0
 16 17  1  0
 16 35  1  0
 17 18  2  0
 17 36  1  0
 18 25  1  0
 19 18  1  0
 19 37  1  0
 20 19  2  0
 20 38  1  0
 21 10  2  0
 22 25  2  0
 25 23  2  0
 25  5  1  0
M  END
>  <lm5_entropy_jk>  (1) 
22.397995528352578

>  <number_of_rotatable_bonds>  (1) 
5

>  <IC50_NM>  (1) 
20

>  <charge>  (1) 
0

$$$$
