3S1H
     RDKit          3D

 43 45  0  0  1  0  0  0  0  0999 V2000
   66.0790  154.2643  -50.3356 N   0  0  0  0  0  0  0  0  0  0  0  0
   67.6178  153.3699  -51.8522 N   0  0  0  0  0  0  0  0  0  0  0  0
   64.6484  154.8161  -48.5861 N   0  0  0  0  0  0  0  0  0  0  0  0
   61.7182  153.0147  -42.9459 N   0  0  0  0  0  0  0  0  0  0  0  0
   68.9456  148.9368  -46.2696 C   0  0  0  0  0  0  0  0  0  0  0  0
   70.0564  149.4706  -46.9222 C   0  0  0  0  0  0  0  0  0  0  0  0
   69.8969  150.2686  -48.0365 C   0  0  0  0  0  0  0  0  0  0  0  0
   67.5270  149.9822  -47.8879 C   0  0  0  0  0  0  0  0  0  0  0  0
   67.6704  149.1613  -46.7787 C   0  0  0  0  0  0  0  0  0  0  0  0
   68.0825  147.6866  -44.4371 C   0  0  0  0  0  0  0  0  0  0  0  0
   68.6235  150.5667  -48.5135 C   0  0  0  0  0  0  0  0  0  0  0  0
   68.4618  151.4944  -49.6824 C   0  0  0  0  0  0  0  0  0  0  0  0
   67.5360  152.5840  -49.5749 C   0  0  0  0  0  0  0  0  0  0  0  0
   67.1086  153.4045  -50.6215 C   0  0  0  0  0  0  0  0  0  0  0  0
   65.6787  154.0978  -49.0914 C   0  0  0  0  0  0  0  0  0  0  0  0
   63.8559  154.5455  -47.4611 C   0  0  0  0  0  0  0  0  0  0  0  0
   63.8288  153.3138  -46.8044 C   0  0  0  0  0  0  0  0  0  0  0  0
   62.9886  153.1233  -45.7259 C   0  0  0  0  0  0  0  0  0  0  0  0
   62.1721  154.1621  -45.3006 C   0  0  0  0  0  0  0  0  0  0  0  0
   62.1644  155.3827  -45.9559 C   0  0  0  0  0  0  0  0  0  0  0  0
   63.0135  155.5707  -47.0266 C   0  0  0  0  0  0  0  0  0  0  0  0
   59.9154  153.0737  -44.7167 O   0  0  0  0  0  0  0  0  0  0  0  0
   60.4993  155.1073  -43.5012 O   0  0  0  0  0  0  0  0  0  0  0  0
   69.1227  151.3219  -50.7118 O   0  0  0  0  0  0  0  0  0  0  0  0
   69.2008  148.2181  -45.1485 O   0  0  0  0  0  0  0  0  0  0  0  0
   66.5842  152.9502  -48.1614 S   0  0  0  0  0  0  0  0  0  0  0  0
   60.9536  153.8632  -44.0796 S   0  0  0  0  0  0  0  0  0  0  0  0
   71.0373  149.2372  -46.5341 H   0  0  0  0  0  0  0  0  0  0  0  0
   67.2738  153.9761  -52.5821 H   0  0  0  0  0  0  0  0  0  0  0  0
   68.3562  152.6991  -51.9986 H   0  0  0  0  0  0  0  0  0  0  0  0
   70.7600  150.6710  -48.5431 H   0  0  0  0  0  0  0  0  0  0  0  0
   64.1935  155.4452  -49.2419 H   0  0  0  0  0  0  0  0  0  0  0  0
   66.5315  150.1516  -48.2705 H   0  0  0  0  0  0  0  0  0  0  0  0
   61.8827  152.0175  -43.2330 H   0  0  0  0  0  0  0  0  0  0  0  0
   61.2476  153.1100  -42.0568 H   0  0  0  0  0  0  0  0  0  0  0  0
   66.7954  148.7161  -46.3307 H   0  0  0  0  0  0  0  0  0  0  0  0
   68.4865  147.2141  -43.5471 H   0  0  0  0  0  0  0  0  0  0  0  0
   67.5573  146.9465  -45.0376 H   0  0  0  0  0  0  0  0  0  0  0  0
   67.3928  148.4756  -44.1382 H   0  0  0  0  0  0  0  0  0  0  0  0
   64.4096  152.4781  -47.1501 H   0  0  0  0  0  0  0  0  0  0  0  0
   62.9636  152.1588  -45.2310 H   0  0  0  0  0  0  0  0  0  0  0  0
   61.4875  156.1637  -45.6449 H   0  0  0  0  0  0  0  0  0  0  0  0
   62.9855  156.4967  -47.5737 H   0  0  0  0  0  0  0  0  0  0  0  0
  1 14  1  0
  1 15  2  0
  2 14  1  0
  2 29  1  0
  2 30  1  0
  3 15  1  0
  3 16  1  0
  3 32  1  0
  4 27  1  0
  4 34  1  0
  4 35  1  0
  5  6  2  0
  5  9  1  0
  5 25  1  0
  6  7  1  0
  6 28  1  0
  7 11  2  0
  7 31  1  0
  8  9  2  0
  8 11  1  0
  8 33  1  0
  9 36  1  0
 10 25  1  0
 10 37  1  0
 10 38  1  0
 10 39  1  0
 12 11  1  0
 12 13  1  0
 12 24  2  0
 13 14  2  0
 13 26  1  0
 15 26  1  0
 16 17  2  0
 16 21  1  0
 17 18  1  0
 17 40  1  0
 18 19  2  0
 18 41  1  0
 19 20  1  0
 19 27  1  0
 20 21  2  0
 20 42  1  0
 21 43  1  0
 22 27  2  0
 23 27  2  0
M  END
>  <lm5_entropy_jk>  (1) 
33.50945403317048

>  <number_of_rotatable_bonds>  (1) 
6

>  <IC50_NM>  (1) 
17000

>  <charge>  (1) 
0

$$$$
