3R8Z
     RDKit          3D

 30 31  0  0  1  0  0  0  0  0999 V2000
   65.7611  154.5157  -50.7991 N   0  0  0  0  0  0  0  0  0  0  0  0
   67.5012  153.6673  -52.0913 N   0  0  0  0  0  0  0  0  0  0  0  0
   69.1822  149.1821  -46.7514 N   0  0  0  0  0  0  0  0  0  0  0  0
   64.2385  155.1635  -49.1583 N   0  0  0  0  0  0  0  0  0  0  0  0
   66.8551  153.7052  -50.9299 C   0  0  0  0  0  0  0  0  0  0  0  0
   67.2364  152.9874  -49.7874 C   0  0  0  0  0  0  0  0  0  0  0  0
   68.3519  152.1037  -49.7752 C   0  0  0  0  0  0  0  0  0  0  0  0
   68.5958  151.1188  -48.6620 C   0  0  0  0  0  0  0  0  0  0  0  0
   67.5814  150.4154  -48.0266 C   0  0  0  0  0  0  0  0  0  0  0  0
   67.9228  149.4540  -47.0820 C   0  0  0  0  0  0  0  0  0  0  0  0
   70.1453  149.8510  -47.3725 C   0  0  0  0  0  0  0  0  0  0  0  0
   69.9103  150.8202  -48.3345 C   0  0  0  0  0  0  0  0  0  0  0  0
   65.2718  154.4408  -49.5778 C   0  0  0  0  0  0  0  0  0  0  0  0
   63.7284  155.1001  -47.8039 C   0  0  0  0  0  0  0  0  0  0  0  0
   62.7635  153.9744  -47.5729 C   0  0  0  0  0  0  0  0  0  0  0  0
   62.8286  153.1649  -46.5306 C   0  0  0  0  0  0  0  0  0  0  0  0
   69.1673  152.1008  -50.7057 O   0  0  0  0  0  0  0  0  0  0  0  0
   66.0992  153.3387  -48.5034 S   0  0  0  0  0  0  0  0  0  0  0  0
   67.1017  154.1005  -52.9121 H   0  0  0  0  0  0  0  0  0  0  0  0
   68.2682  153.0141  -52.1402 H   0  0  0  0  0  0  0  0  0  0  0  0
   66.5417  150.5730  -48.2680 H   0  0  0  0  0  0  0  0  0  0  0  0
   67.1522  148.8783  -46.5897 H   0  0  0  0  0  0  0  0  0  0  0  0
   71.1612  149.5810  -47.1141 H   0  0  0  0  0  0  0  0  0  0  0  0
   70.7280  151.3132  -48.8370 H   0  0  0  0  0  0  0  0  0  0  0  0
   63.6765  155.6682  -49.8448 H   0  0  0  0  0  0  0  0  0  0  0  0
   63.2236  156.0470  -47.6241 H   0  0  0  0  0  0  0  0  0  0  0  0
   64.5586  155.0289  -47.1040 H   0  0  0  0  0  0  0  0  0  0  0  0
   61.9769  153.8779  -48.3132 H   0  0  0  0  0  0  0  0  0  0  0  0
   63.6227  153.2494  -45.7988 H   0  0  0  0  0  0  0  0  0  0  0  0
   62.0915  152.3954  -46.3581 H   0  0  0  0  0  0  0  0  0  0  0  0
  1  5  1  0
  1 13  2  0
  2  5  1  0
  2 19  1  0
  2 20  1  0
  3 10  2  0
  3 11  1  0
  4 13  1  0
  4 14  1  0
  4 25  1  0
  5  6  2  0
  6 18  1  0
  7  6  1  0
  7  8  1  0
  7 17  2  0
  8  9  2  0
  8 12  1  0
  9 10  1  0
  9 21  1  0
 10 22  1  0
 11 12  2  0
 11 23  1  0
 12 24  1  0
 13 18  1  0
 14 15  1  0
 14 26  1  0
 14 27  1  0
 15 16  2  0
 15 28  1  0
 16 29  1  0
 16 30  1  0
M  END
>  <lm5_entropy_jk>  (1) 
22.952794734129974

>  <number_of_rotatable_bonds>  (1) 
5

>  <IC50_NM>  (1) 
49000

>  <charge>  (1) 
0

$$$$
