3R9D
     RDKit          3D

 41 43  0  0  0  0  0  0  0  0999 V2000
   65.7730  154.4511  -50.5013 N   0  0  0  0  0  0  0  0  0  0  0  0
   64.3656  154.9298  -48.7133 N   0  0  0  0  0  0  0  0  0  0  0  0
   68.6964  151.2737  -48.6839 N   0  0  0  0  0  0  0  0  0  0  0  0
   67.3255  153.5816  -52.0464 N   0  0  0  0  0  0  0  0  0  0  0  0
   61.6899  152.9949  -42.8193 N   0  0  0  0  0  0  0  0  0  0  0  0
   67.4593  153.0168  -49.7224 C   0  0  0  0  0  0  0  0  0  0  0  0
   66.8863  153.6851  -50.7920 C   0  0  0  0  0  0  0  0  0  0  0  0
   65.4396  154.2907  -49.2436 C   0  0  0  0  0  0  0  0  0  0  0  0
   63.6578  154.6555  -47.5270 C   0  0  0  0  0  0  0  0  0  0  0  0
   68.5426  152.0698  -49.8068 C   0  0  0  0  0  0  0  0  0  0  0  0
   62.7558  155.6243  -47.0808 C   0  0  0  0  0  0  0  0  0  0  0  0
   61.9792  155.4161  -45.9568 C   0  0  0  0  0  0  0  0  0  0  0  0
   62.0882  154.2300  -45.2449 C   0  0  0  0  0  0  0  0  0  0  0  0
   62.9819  153.2580  -45.6704 C   0  0  0  0  0  0  0  0  0  0  0  0
   63.7545  153.4673  -46.8043 C   0  0  0  0  0  0  0  0  0  0  0  0
   69.6928  150.3395  -48.3917 C   0  0  0  0  0  0  0  0  0  0  0  0
   69.4182  149.4481  -47.3476 C   0  0  0  0  0  0  0  0  0  0  0  0
   70.3622  148.5287  -46.9368 C   0  0  0  0  0  0  0  0  0  0  0  0
   71.6032  148.4809  -47.5571 C   0  0  0  0  0  0  0  0  0  0  0  0
   71.8283  149.3586  -48.5898 C   0  0  0  0  0  0  0  0  0  0  0  0
   70.9274  150.2963  -49.0431 C   0  0  0  0  0  0  0  0  0  0  0  0
   69.2647  151.9828  -50.7937 O   0  0  0  0  0  0  0  0  0  0  0  0
   59.9118  153.0641  -44.4838 O   0  0  0  0  0  0  0  0  0  0  0  0
   60.5417  155.1444  -43.3239 O   0  0  0  0  0  0  0  0  0  0  0  0
   66.4994  153.2906  -48.3120 S   0  0  0  0  0  0  0  0  0  0  0  0
   60.9365  153.8963  -43.9184 S   0  0  0  0  0  0  0  0  0  0  0  0
   73.0620  149.2882  -49.2167 F   0  0  0  0  0  0  0  0  0  0  0  0
   63.8635  155.5030  -49.3795 H   0  0  0  0  0  0  0  0  0  0  0  0
   67.9044  151.2110  -48.0672 H   0  0  0  0  0  0  0  0  0  0  0  0
   66.9457  154.1570  -52.7771 H   0  0  0  0  0  0  0  0  0  0  0  0
   68.1882  153.0658  -52.1679 H   0  0  0  0  0  0  0  0  0  0  0  0
   61.8342  152.0075  -43.1466 H   0  0  0  0  0  0  0  0  0  0  0  0
   62.5215  153.4406  -42.4443 H   0  0  0  0  0  0  0  0  0  0  0  0
   62.6279  156.5314  -47.6501 H   0  0  0  0  0  0  0  0  0  0  0  0
   61.2653  156.1673  -45.6527 H   0  0  0  0  0  0  0  0  0  0  0  0
   63.0407  152.3087  -45.1530 H   0  0  0  0  0  0  0  0  0  0  0  0
   64.3953  152.6682  -47.1329 H   0  0  0  0  0  0  0  0  0  0  0  0
   68.4460  149.4598  -46.8664 H   0  0  0  0  0  0  0  0  0  0  0  0
   70.1262  147.8102  -46.1617 H   0  0  0  0  0  0  0  0  0  0  0  0
   72.3237  147.7164  -47.2934 H   0  0  0  0  0  0  0  0  0  0  0  0
   71.1582  150.9384  -49.8778 H   0  0  0  0  0  0  0  0  0  0  0  0
  1  8  2  0
  2  9  1  0
  2 28  1  0
  3 16  1  0
  3 29  1  0
  4  7  1  0
  4 30  1  0
  4 31  1  0
  5 32  1  0
  5 33  1  0
  6 25  1  0
  7  1  1  0
  7  6  2  0
  8  2  1  0
  8 25  1  0
  9 11  2  0
  9 15  1  0
 10  6  1  0
 10  3  1  0
 11 12  1  0
 11 34  1  0
 12 13  2  0
 12 35  1  0
 13 26  1  0
 14 13  1  0
 14 36  1  0
 15 14  2  0
 15 37  1  0
 16 17  2  0
 17 18  1  0
 17 38  1  0
 18 39  1  0
 19 18  2  0
 19 40  1  0
 20 19  1  0
 21 20  2  0
 21 16  1  0
 21 41  1  0
 22 10  2  0
 23 26  2  0
 26 24  2  0
 26  5  1  0
 27 20  1  0
M  END
>  <lm5_entropy_jk>  (1) 
21.052089499889224

>  <number_of_rotatable_bonds>  (1) 
6

>  <IC50_NM>  (1) 
71000

>  <charge>  (1) 
0

$$$$
