3S1H
     RDKit          3D

 43 45  0  0  1  0  0  0  0  0999 V2000
   65.9907  154.2988  -50.3403 N   0  0  0  0  0  0  0  0  0  0  0  0
   67.5241  153.4638  -51.9256 N   0  0  0  0  0  0  0  0  0  0  0  0
   64.6088  154.7724  -48.5130 N   0  0  0  0  0  0  0  0  0  0  0  0
   61.7614  152.8286  -42.7004 N   0  0  0  0  0  0  0  0  0  0  0  0
   69.1430  149.3411  -46.2364 C   0  0  0  0  0  0  0  0  0  0  0  0
   70.2425  149.8582  -46.9226 C   0  0  0  0  0  0  0  0  0  0  0  0
   70.0604  150.5644  -48.0928 C   0  0  0  0  0  0  0  0  0  0  0  0
   67.7097  150.1435  -47.9778 C   0  0  0  0  0  0  0  0  0  0  0  0
   67.8740  149.4342  -46.7982 C   0  0  0  0  0  0  0  0  0  0  0  0
   68.2878  148.3927  -44.2382 C   0  0  0  0  0  0  0  0  0  0  0  0
   68.7818  150.7670  -48.6061 C   0  0  0  0  0  0  0  0  0  0  0  0
   68.5860  151.6906  -49.7733 C   0  0  0  0  0  0  0  0  0  0  0  0
   67.5550  152.6855  -49.6536 C   0  0  0  0  0  0  0  0  0  0  0  0
   67.0502  153.4865  -50.6757 C   0  0  0  0  0  0  0  0  0  0  0  0
   65.6318  154.0777  -49.0936 C   0  0  0  0  0  0  0  0  0  0  0  0
   63.8333  154.4629  -47.3802 C   0  0  0  0  0  0  0  0  0  0  0  0
   63.8855  153.2493  -46.6900 C   0  0  0  0  0  0  0  0  0  0  0  0
   63.0718  153.0189  -45.5923 C   0  0  0  0  0  0  0  0  0  0  0  0
   62.1860  154.0007  -45.1652 C   0  0  0  0  0  0  0  0  0  0  0  0
   62.1194  155.2104  -45.8447 C   0  0  0  0  0  0  0  0  0  0  0  0
   62.9287  155.4366  -46.9399 C   0  0  0  0  0  0  0  0  0  0  0  0
   59.9576  152.9572  -44.3370 O   0  0  0  0  0  0  0  0  0  0  0  0
   60.7232  155.0289  -43.2545 O   0  0  0  0  0  0  0  0  0  0  0  0
   69.3054  151.6274  -50.7706 O   0  0  0  0  0  0  0  0  0  0  0  0
   69.4044  148.7835  -45.0276 O   0  0  0  0  0  0  0  0  0  0  0  0
   66.5972  152.9488  -48.2209 S   0  0  0  0  0  0  0  0  0  0  0  0
   61.0387  153.7475  -43.8213 S   0  0  0  0  0  0  0  0  0  0  0  0
   71.2197  149.6982  -46.4990 H   0  0  0  0  0  0  0  0  0  0  0  0
   67.1979  154.0926  -52.6382 H   0  0  0  0  0  0  0  0  0  0  0  0
   68.3318  152.8779  -52.0784 H   0  0  0  0  0  0  0  0  0  0  0  0
   70.9014  150.9921  -48.6145 H   0  0  0  0  0  0  0  0  0  0  0  0
   64.1809  155.4478  -49.1292 H   0  0  0  0  0  0  0  0  0  0  0  0
   66.7178  150.1996  -48.4004 H   0  0  0  0  0  0  0  0  0  0  0  0
   61.8602  151.8250  -43.0060 H   0  0  0  0  0  0  0  0  0  0  0  0
   62.6076  153.2344  -42.3172 H   0  0  0  0  0  0  0  0  0  0  0  0
   67.0137  148.9726  -46.3344 H   0  0  0  0  0  0  0  0  0  0  0  0
   68.6899  148.0425  -43.2936 H   0  0  0  0  0  0  0  0  0  0  0  0
   67.7207  147.5885  -44.7072 H   0  0  0  0  0  0  0  0  0  0  0  0
   67.6172  149.2342  -44.0545 H   0  0  0  0  0  0  0  0  0  0  0  0
   64.5376  152.4544  -47.0108 H   0  0  0  0  0  0  0  0  0  0  0  0
   63.1242  152.0596  -45.0915 H   0  0  0  0  0  0  0  0  0  0  0  0
   61.4228  155.9702  -45.5155 H   0  0  0  0  0  0  0  0  0  0  0  0
   62.8308  156.3658  -47.4795 H   0  0  0  0  0  0  0  0  0  0  0  0
  1 14  1  0
  1 15  2  0
  2 14  1  0
  2 29  1  0
  2 30  1  0
  3 15  1  0
  3 16  1  0
  3 32  1  0
  4 27  1  0
  4 34  1  0
  4 35  1  0
  5  6  2  0
  5  9  1  0
  5 25  1  0
  6  7  1  0
  6 28  1  0
  7 11  2  0
  7 31  1  0
  8  9  2  0
  8 11  1  0
  8 33  1  0
  9 36  1  0
 10 25  1  0
 10 37  1  0
 10 38  1  0
 10 39  1  0
 12 11  1  0
 12 13  1  0
 12 24  2  0
 13 14  2  0
 13 26  1  0
 15 26  1  0
 16 17  2  0
 16 21  1  0
 17 18  1  0
 17 40  1  0
 18 19  2  0
 18 41  1  0
 19 20  1  0
 19 27  1  0
 20 21  2  0
 20 42  1  0
 21 43  1  0
 22 27  2  0
 23 27  2  0
M  END
>  <lm5_entropy_jk>  (1) 
33.50945403317048

>  <number_of_rotatable_bonds>  (1) 
6

>  <IC50_NM>  (1) 
17000

>  <charge>  (1) 
0

$$$$
