3R9D
     RDKit          3D

 41 43  0  0  0  0  0  0  0  0999 V2000
   65.7991  154.4593  -50.5804 N   0  0  0  0  0  0  0  0  0  0  0  0
   64.4268  155.0397  -48.7654 N   0  0  0  0  0  0  0  0  0  0  0  0
   68.6590  151.2494  -48.7001 N   0  0  0  0  0  0  0  0  0  0  0  0
   67.3638  153.5741  -52.1160 N   0  0  0  0  0  0  0  0  0  0  0  0
   62.0724  153.0336  -42.9360 N   0  0  0  0  0  0  0  0  0  0  0  0
   67.4566  153.0092  -49.7838 C   0  0  0  0  0  0  0  0  0  0  0  0
   66.8998  153.6743  -50.8595 C   0  0  0  0  0  0  0  0  0  0  0  0
   65.4679  154.3414  -49.3223 C   0  0  0  0  0  0  0  0  0  0  0  0
   63.7035  154.7384  -47.5854 C   0  0  0  0  0  0  0  0  0  0  0  0
   68.5676  152.0798  -49.8074 C   0  0  0  0  0  0  0  0  0  0  0  0
   62.7635  155.6726  -47.1418 C   0  0  0  0  0  0  0  0  0  0  0  0
   62.0132  155.4521  -46.0017 C   0  0  0  0  0  0  0  0  0  0  0  0
   62.1957  154.2904  -45.2673 C   0  0  0  0  0  0  0  0  0  0  0  0
   63.1166  153.3493  -45.6995 C   0  0  0  0  0  0  0  0  0  0  0  0
   63.8508  153.5597  -46.8546 C   0  0  0  0  0  0  0  0  0  0  0  0
   69.6587  150.3120  -48.3902 C   0  0  0  0  0  0  0  0  0  0  0  0
   69.4412  149.4678  -47.2967 C   0  0  0  0  0  0  0  0  0  0  0  0
   70.4003  148.5405  -46.9301 C   0  0  0  0  0  0  0  0  0  0  0  0
   71.6057  148.4413  -47.6139 C   0  0  0  0  0  0  0  0  0  0  0  0
   71.7833  149.2816  -48.6920 C   0  0  0  0  0  0  0  0  0  0  0  0
   70.8508  150.2118  -49.1054 C   0  0  0  0  0  0  0  0  0  0  0  0
   69.3732  152.0528  -50.7298 O   0  0  0  0  0  0  0  0  0  0  0  0
   60.0515  153.0952  -44.4604 O   0  0  0  0  0  0  0  0  0  0  0  0
   60.7504  155.0895  -43.1850 O   0  0  0  0  0  0  0  0  0  0  0  0
   66.5290  153.3597  -48.3651 S   0  0  0  0  0  0  0  0  0  0  0  0
   61.1105  153.9017  -43.9181 S   0  0  0  0  0  0  0  0  0  0  0  0
   72.9276  149.1847  -49.4034 F   0  0  0  0  0  0  0  0  0  0  0  0
   63.8692  155.5567  -49.4448 H   0  0  0  0  0  0  0  0  0  0  0  0
   67.8307  151.1756  -48.1304 H   0  0  0  0  0  0  0  0  0  0  0  0
   66.9814  154.1347  -52.8714 H   0  0  0  0  0  0  0  0  0  0  0  0
   68.2264  153.0849  -52.2713 H   0  0  0  0  0  0  0  0  0  0  0  0
   62.0685  152.0276  -43.1766 H   0  0  0  0  0  0  0  0  0  0  0  0
   61.9250  153.2281  -41.9628 H   0  0  0  0  0  0  0  0  0  0  0  0
   62.5791  156.5581  -47.7306 H   0  0  0  0  0  0  0  0  0  0  0  0
   61.2718  156.1703  -45.6891 H   0  0  0  0  0  0  0  0  0  0  0  0
   63.2648  152.4274  -45.1534 H   0  0  0  0  0  0  0  0  0  0  0  0
   64.4966  152.7725  -47.1945 H   0  0  0  0  0  0  0  0  0  0  0  0
   68.4982  149.5001  -46.7575 H   0  0  0  0  0  0  0  0  0  0  0  0
   70.1801  147.8443  -46.1303 H   0  0  0  0  0  0  0  0  0  0  0  0
   72.3140  147.6564  -47.3843 H   0  0  0  0  0  0  0  0  0  0  0  0
   71.0177  150.8046  -49.9869 H   0  0  0  0  0  0  0  0  0  0  0  0
  1  8  2  0
  2  9  1  0
  2 28  1  0
  3 16  1  0
  3 29  1  0
  4  7  1  0
  4 30  1  0
  4 31  1  0
  5 32  1  0
  5 33  1  0
  6 25  1  0
  7  1  1  0
  7  6  2  0
  8  2  1  0
  8 25  1  0
  9 11  2  0
  9 15  1  0
 10  6  1  0
 10  3  1  0
 11 12  1  0
 11 34  1  0
 12 13  2  0
 12 35  1  0
 13 26  1  0
 14 13  1  0
 14 36  1  0
 15 14  2  0
 15 37  1  0
 16 17  2  0
 17 18  1  0
 17 38  1  0
 18 39  1  0
 19 18  2  0
 19 40  1  0
 20 19  1  0
 21 20  2  0
 21 16  1  0
 21 41  1  0
 22 10  2  0
 23 26  2  0
 26 24  2  0
 26  5  1  0
 27 20  1  0
M  END
>  <lm5_entropy_jk>  (1) 
21.052089499889224

>  <number_of_rotatable_bonds>  (1) 
6

>  <IC50_NM>  (1) 
71000

>  <charge>  (1) 
0

$$$$
