3RAL
     RDKit          3D

 43 45  0  0  1  0  0  0  0  0999 V2000
   65.6838  154.2752  -50.7155 N   0  0  0  0  0  0  0  0  0  0  0  0
   67.5244  153.5121  -51.9495 N   0  0  0  0  0  0  0  0  0  0  0  0
   63.9903  154.7733  -49.1904 N   0  0  0  0  0  0  0  0  0  0  0  0
   61.1830  153.1899  -43.3437 N   0  0  0  0  0  0  0  0  0  0  0  0
   68.5572  148.9471  -46.5132 C   0  0  0  0  0  0  0  0  0  0  0  0
   69.7032  149.5813  -46.9627 C   0  0  0  0  0  0  0  0  0  0  0  0
   69.6363  150.5507  -47.9599 C   0  0  0  0  0  0  0  0  0  0  0  0
   67.2497  150.2443  -48.0486 C   0  0  0  0  0  0  0  0  0  0  0  0
   67.3330  149.2718  -47.0723 C   0  0  0  0  0  0  0  0  0  0  0  0
   71.0008  148.2684  -45.4828 C   0  0  0  0  0  0  0  0  0  0  0  0
   68.3999  150.8990  -48.4871 C   0  0  0  0  0  0  0  0  0  0  0  0
   68.3151  151.9231  -49.5859 C   0  0  0  0  0  0  0  0  0  0  0  0
   67.1791  152.7952  -49.6735 C   0  0  0  0  0  0  0  0  0  0  0  0
   66.8318  153.5249  -50.8123 C   0  0  0  0  0  0  0  0  0  0  0  0
   65.1258  154.1214  -49.5357 C   0  0  0  0  0  0  0  0  0  0  0  0
   63.1968  154.5460  -48.0584 C   0  0  0  0  0  0  0  0  0  0  0  0
   63.0757  153.2837  -47.4678 C   0  0  0  0  0  0  0  0  0  0  0  0
   62.2600  153.1137  -46.3670 C   0  0  0  0  0  0  0  0  0  0  0  0
   61.5512  154.1982  -45.8629 C   0  0  0  0  0  0  0  0  0  0  0  0
   61.6339  155.4445  -46.4580 C   0  0  0  0  0  0  0  0  0  0  0  0
   62.4602  155.6150  -47.5519 C   0  0  0  0  0  0  0  0  0  0  0  0
   59.4463  152.9582  -45.0163 O   0  0  0  0  0  0  0  0  0  0  0  0
   59.9018  155.2009  -44.1271 O   0  0  0  0  0  0  0  0  0  0  0  0
   69.2094  151.9726  -50.4358 O   0  0  0  0  0  0  0  0  0  0  0  0
   70.9478  149.2890  -46.4649 O   0  0  0  0  0  0  0  0  0  0  0  0
   65.9684  153.0698  -48.4471 S   0  0  0  0  0  0  0  0  0  0  0  0
   60.4157  153.9243  -44.5541 S   0  0  0  0  0  0  0  0  0  0  0  0
   68.5947  148.1660  -45.7771 H   0  0  0  0  0  0  0  0  0  0  0  0
   67.2025  154.0215  -52.7606 H   0  0  0  0  0  0  0  0  0  0  0  0
   68.3638  152.9531  -51.9465 H   0  0  0  0  0  0  0  0  0  0  0  0
   70.5404  151.0200  -48.3188 H   0  0  0  0  0  0  0  0  0  0  0  0
   63.6697  155.5207  -49.8049 H   0  0  0  0  0  0  0  0  0  0  0  0
   66.2949  150.4667  -48.4872 H   0  0  0  0  0  0  0  0  0  0  0  0
   61.3032  152.1815  -43.5205 H   0  0  0  0  0  0  0  0  0  0  0  0
   62.0031  153.6600  -42.9914 H   0  0  0  0  0  0  0  0  0  0  0  0
   66.4463  148.7508  -46.7494 H   0  0  0  0  0  0  0  0  0  0  0  0
   72.0522  148.0531  -45.3282 H   0  0  0  0  0  0  0  0  0  0  0  0
   70.5210  147.3525  -45.8240 H   0  0  0  0  0  0  0  0  0  0  0  0
   70.5515  148.6040  -44.5477 H   0  0  0  0  0  0  0  0  0  0  0  0
   63.5736  152.4299  -47.8912 H   0  0  0  0  0  0  0  0  0  0  0  0
   62.1486  152.1401  -45.9093 H   0  0  0  0  0  0  0  0  0  0  0  0
   61.0319  156.2585  -46.0866 H   0  0  0  0  0  0  0  0  0  0  0  0
   62.4952  156.5610  -48.0627 H   0  0  0  0  0  0  0  0  0  0  0  0
  1 14  1  0
  1 15  2  0
  2 14  1  0
  2 29  1  0
  2 30  1  0
  3 15  1  0
  3 16  1  0
  3 32  1  0
  4 27  1  0
  4 34  1  0
  4 35  1  0
  5  6  2  0
  5  9  1  0
  5 28  1  0
  6  7  1  0
  6 25  1  0
  7 11  2  0
  7 31  1  0
  8  9  2  0
  8 11  1  0
  8 33  1  0
  9 36  1  0
 10 25  1  0
 10 37  1  0
 10 38  1  0
 10 39  1  0
 12 11  1  0
 12 13  1  0
 12 24  2  0
 13 14  2  0
 13 26  1  0
 15 26  1  0
 16 17  2  0
 16 21  1  0
 17 18  1  0
 17 40  1  0
 18 19  2  0
 18 41  1  0
 19 20  1  0
 19 27  1  0
 20 21  2  0
 20 42  1  0
 21 43  1  0
 22 27  2  0
 23 27  2  0
M  END
>  <lm5_entropy_jk>  (1) 
33.50945403317048

>  <number_of_rotatable_bonds>  (1) 
6

>  <IC50_NM>  (1) 
100

>  <charge>  (1) 
0

$$$$
