3R8Z
     RDKit          3D

 30 31  0  0  1  0  0  0  0  0999 V2000
   65.7271  154.3263  -50.8783 N   0  0  0  0  0  0  0  0  0  0  0  0
   67.3888  153.3866  -52.2032 N   0  0  0  0  0  0  0  0  0  0  0  0
   69.3205  149.3144  -46.5885 N   0  0  0  0  0  0  0  0  0  0  0  0
   64.2694  155.0619  -49.2237 N   0  0  0  0  0  0  0  0  0  0  0  0
   66.7876  153.4766  -51.0246 C   0  0  0  0  0  0  0  0  0  0  0  0
   67.1784  152.7698  -49.8775 C   0  0  0  0  0  0  0  0  0  0  0  0
   68.2309  151.8180  -49.8861 C   0  0  0  0  0  0  0  0  0  0  0  0
   68.5656  150.9856  -48.6778 C   0  0  0  0  0  0  0  0  0  0  0  0
   67.6110  150.3100  -47.9325 C   0  0  0  0  0  0  0  0  0  0  0  0
   68.0378  149.4790  -46.9022 C   0  0  0  0  0  0  0  0  0  0  0  0
   70.2232  149.9636  -47.3154 C   0  0  0  0  0  0  0  0  0  0  0  0
   69.9046  150.8015  -48.3683 C   0  0  0  0  0  0  0  0  0  0  0  0
   65.2826  154.3103  -49.6382 C   0  0  0  0  0  0  0  0  0  0  0  0
   63.7572  155.0520  -47.8688 C   0  0  0  0  0  0  0  0  0  0  0  0
   62.7753  153.9433  -47.6141 C   0  0  0  0  0  0  0  0  0  0  0  0
   62.8372  153.1394  -46.5668 C   0  0  0  0  0  0  0  0  0  0  0  0
   68.9224  151.6234  -50.8955 O   0  0  0  0  0  0  0  0  0  0  0  0
   66.1246  153.2277  -48.5519 S   0  0  0  0  0  0  0  0  0  0  0  0
   67.0679  153.9415  -52.9835 H   0  0  0  0  0  0  0  0  0  0  0  0
   68.1654  152.7461  -52.2522 H   0  0  0  0  0  0  0  0  0  0  0  0
   66.5583  150.3891  -48.1589 H   0  0  0  0  0  0  0  0  0  0  0  0
   67.3164  148.9170  -46.3272 H   0  0  0  0  0  0  0  0  0  0  0  0
   71.2603  149.7815  -47.0699 H   0  0  0  0  0  0  0  0  0  0  0  0
   70.6770  151.2790  -48.9523 H   0  0  0  0  0  0  0  0  0  0  0  0
   63.7595  155.6195  -49.9081 H   0  0  0  0  0  0  0  0  0  0  0  0
   63.2629  156.0112  -47.7299 H   0  0  0  0  0  0  0  0  0  0  0  0
   64.5835  154.9974  -47.1616 H   0  0  0  0  0  0  0  0  0  0  0  0
   61.9824  153.8563  -48.3482 H   0  0  0  0  0  0  0  0  0  0  0  0
   63.6404  153.2186  -45.8441 H   0  0  0  0  0  0  0  0  0  0  0  0
   62.0917  152.3794  -46.3855 H   0  0  0  0  0  0  0  0  0  0  0  0
  1  5  1  0
  1 13  2  0
  2  5  1  0
  2 19  1  0
  2 20  1  0
  3 10  2  0
  3 11  1  0
  4 13  1  0
  4 14  1  0
  4 25  1  0
  5  6  2  0
  6 18  1  0
  7  6  1  0
  7  8  1  0
  7 17  2  0
  8  9  2  0
  8 12  1  0
  9 10  1  0
  9 21  1  0
 10 22  1  0
 11 12  2  0
 11 23  1  0
 12 24  1  0
 13 18  1  0
 14 15  1  0
 14 26  1  0
 14 27  1  0
 15 16  2  0
 15 28  1  0
 16 29  1  0
 16 30  1  0
M  END
>  <lm5_entropy_jk>  (1) 
22.952794734129974

>  <number_of_rotatable_bonds>  (1) 
5

>  <IC50_NM>  (1) 
49000

>  <charge>  (1) 
0

$$$$
