3RK9
     RDKit          3D

 32 33  0  0  1  0  0  0  0  0999 V2000
   64.4873  155.0539  -48.4718 N   0  0  0  0  0  0  0  0  0  0  0  0
   65.7734  154.5237  -50.3355 N   0  0  0  0  0  0  0  0  0  0  0  0
   67.2238  153.6801  -51.9514 N   0  0  0  0  0  0  0  0  0  0  0  0
   70.7932  150.1738  -47.6427 N   0  0  0  0  0  0  0  0  0  0  0  0
   62.9567  155.8066  -46.7648 C   0  0  0  0  0  0  0  0  0  0  0  0
   63.8535  154.6673  -47.2101 C   0  0  0  0  0  0  0  0  0  0  0  0
   63.0679  153.3686  -47.3036 C   0  0  0  0  0  0  0  0  0  0  0  0
   65.4535  154.3352  -49.0746 C   0  0  0  0  0  0  0  0  0  0  0  0
   66.8042  153.7024  -50.6904 C   0  0  0  0  0  0  0  0  0  0  0  0
   67.3581  152.9247  -49.6708 C   0  0  0  0  0  0  0  0  0  0  0  0
   68.4611  152.0522  -49.8603 C   0  0  0  0  0  0  0  0  0  0  0  0
   68.8903  151.1044  -48.7833 C   0  0  0  0  0  0  0  0  0  0  0  0
   68.0263  150.2468  -48.1181 C   0  0  0  0  0  0  0  0  0  0  0  0
   68.5737  149.3394  -47.2254 C   0  0  0  0  0  0  0  0  0  0  0  0
   69.9450  149.3397  -47.0190 C   0  0  0  0  0  0  0  0  0  0  0  0
   70.2496  151.0158  -48.5160 C   0  0  0  0  0  0  0  0  0  0  0  0
   69.1148  152.0722  -50.9080 O   0  0  0  0  0  0  0  0  0  0  0  0
   66.4155  153.1677  -48.2202 S   0  0  0  0  0  0  0  0  0  0  0  0
   63.5165  156.7266  -46.6407 H   0  0  0  0  0  0  0  0  0  0  0  0
   62.4933  155.5550  -45.8149 H   0  0  0  0  0  0  0  0  0  0  0  0
   62.1642  155.9639  -47.4966 H   0  0  0  0  0  0  0  0  0  0  0  0
   64.6516  154.5286  -46.4854 H   0  0  0  0  0  0  0  0  0  0  0  0
   62.3634  153.3942  -48.1323 H   0  0  0  0  0  0  0  0  0  0  0  0
   62.5083  153.2132  -46.3844 H   0  0  0  0  0  0  0  0  0  0  0  0
   63.7308  152.5193  -47.4268 H   0  0  0  0  0  0  0  0  0  0  0  0
   63.8709  155.5143  -49.1227 H   0  0  0  0  0  0  0  0  0  0  0  0
   66.7663  154.2418  -52.6472 H   0  0  0  0  0  0  0  0  0  0  0  0
   68.0152  153.0839  -52.1434 H   0  0  0  0  0  0  0  0  0  0  0  0
   66.9570  150.2604  -48.2997 H   0  0  0  0  0  0  0  0  0  0  0  0
   67.9425  148.6313  -46.7015 H   0  0  0  0  0  0  0  0  0  0  0  0
   70.3860  148.6422  -46.3148 H   0  0  0  0  0  0  0  0  0  0  0  0
   70.9252  151.6771  -49.0445 H   0  0  0  0  0  0  0  0  0  0  0  0
  1  6  1  0
  1  8  1  0
  1 26  1  0
  2  8  2  0
  2  9  1  0
  3  9  1  0
  3 27  1  0
  3 28  1  0
  4 15  2  0
  4 16  1  0
  5  6  1  0
  5 19  1  0
  5 20  1  0
  5 21  1  0
  6  7  1  0
  6 22  1  0
  7 23  1  0
  7 24  1  0
  7 25  1  0
  8 18  1  0
  9 10  2  0
 10 18  1  0
 11 10  1  0
 11 12  1  0
 11 17  2  0
 12 13  1  0
 12 16  2  0
 13 14  2  0
 13 29  1  0
 14 15  1  0
 14 30  1  0
 15 31  1  0
 16 32  1  0
M  END
>  <lm5_entropy_jk>  (1) 
34.96174716553827

>  <number_of_rotatable_bonds>  (1) 
4

>  <IC50_NM>  (1) 
520

>  <charge>  (1) 
0

$$$$
