3R8V
     RDKit          3D

 33 34  0  0  1  0  0  0  0  0999 V2000
   65.6533  154.6222  -50.1417 N   0  0  0  0  0  0  0  0  0  0  0  0
   67.1901  153.5110  -51.4994 N   0  0  0  0  0  0  0  0  0  0  0  0
   64.3029  155.4715  -48.4269 N   0  0  0  0  0  0  0  0  0  0  0  0
   68.2036  150.8213  -44.2631 N   0  0  0  0  0  0  0  0  0  0  0  0
   66.6073  153.6574  -50.3076 C   0  0  0  0  0  0  0  0  0  0  0  0
   66.8832  152.8658  -49.1805 C   0  0  0  0  0  0  0  0  0  0  0  0
   67.7736  151.7537  -49.1797 C   0  0  0  0  0  0  0  0  0  0  0  0
   67.8924  150.8485  -47.9759 C   0  0  0  0  0  0  0  0  0  0  0  0
   67.8963  151.2878  -46.6605 C   0  0  0  0  0  0  0  0  0  0  0  0
   68.0611  150.3488  -45.6508 C   0  0  0  0  0  0  0  0  0  0  0  0
   68.1500  148.9934  -45.8989 C   0  0  0  0  0  0  0  0  0  0  0  0
   68.1397  148.5679  -47.2155 C   0  0  0  0  0  0  0  0  0  0  0  0
   68.0404  149.4905  -48.2376 C   0  0  0  0  0  0  0  0  0  0  0  0
   65.1594  154.5716  -48.9162 C   0  0  0  0  0  0  0  0  0  0  0  0
   63.6050  155.3206  -47.1583 C   0  0  0  0  0  0  0  0  0  0  0  0
   62.7090  154.1146  -47.0887 C   0  0  0  0  0  0  0  0  0  0  0  0
   62.6391  153.3280  -46.0283 C   0  0  0  0  0  0  0  0  0  0  0  0
   68.4360  151.4606  -50.1805 O   0  0  0  0  0  0  0  0  0  0  0  0
   68.0573  152.0107  -44.0574 O   0  0  0  0  0  0  0  0  0  0  0  0
   68.4893  150.0135  -43.4029 O   0  0  0  0  0  0  0  0  0  0  0  0
   65.7577  153.2888  -47.9128 S   0  0  0  0  0  0  0  0  0  0  0  0
   66.9694  154.1249  -52.2690 H   0  0  0  0  0  0  0  0  0  0  0  0
   67.9014  152.8015  -51.5588 H   0  0  0  0  0  0  0  0  0  0  0  0
   67.8290  152.3296  -46.4029 H   0  0  0  0  0  0  0  0  0  0  0  0
   68.2374  148.2883  -45.0886 H   0  0  0  0  0  0  0  0  0  0  0  0
   68.2254  147.5149  -47.4245 H   0  0  0  0  0  0  0  0  0  0  0  0
   68.0788  149.1746  -49.2624 H   0  0  0  0  0  0  0  0  0  0  0  0
   63.7992  156.0070  -49.1200 H   0  0  0  0  0  0  0  0  0  0  0  0
   62.9929  156.2143  -47.0526 H   0  0  0  0  0  0  0  0  0  0  0  0
   64.3105  155.3118  -46.3290 H   0  0  0  0  0  0  0  0  0  0  0  0
   61.9618  152.4912  -45.9767 H   0  0  0  0  0  0  0  0  0  0  0  0
   63.2601  153.5107  -45.1587 H   0  0  0  0  0  0  0  0  0  0  0  0
   62.0976  153.9541  -47.9683 H   0  0  0  0  0  0  0  0  0  0  0  0
  1  5  1  0
  1 14  2  0
  2  5  1  0
  2 22  1  0
  2 23  1  0
  3 14  1  0
  3 15  1  0
  3 28  1  0
  4 10  1  0
  4 19  1  0
  4 20  2  0
  5  6  2  0
  6 21  1  0
  7  6  1  0
  7  8  1  0
  7 18  2  0
  8  9  2  0
  8 13  1  0
  9 10  1  0
  9 24  1  0
 10 11  2  0
 11 12  1  0
 11 25  1  0
 12 13  2  0
 12 26  1  0
 13 27  1  0
 14 21  1  0
 15 16  1  0
 15 29  1  0
 15 30  1  0
 16 17  2  0
 16 33  1  0
 17 31  1  0
 17 32  1  0
M  CHG  2   4   1  19  -1
M  END
>  <lm5_entropy_jk>  (1) 
33.50945403317048

>  <number_of_rotatable_bonds>  (1) 
6

>  <IC50_NM>  (1) 
2900

>  <charge>  (1) 
0

$$$$
