3R9D
     RDKit          3D

 41 43  0  0  0  0  0  0  0  0999 V2000
   65.6433  154.5082  -50.4344 N   0  0  0  0  0  0  0  0  0  0  0  0
   64.2097  154.9647  -48.6498 N   0  0  0  0  0  0  0  0  0  0  0  0
   68.7726  151.5888  -48.4981 N   0  0  0  0  0  0  0  0  0  0  0  0
   67.2576  153.7182  -51.9467 N   0  0  0  0  0  0  0  0  0  0  0  0
   61.6217  152.8988  -42.8131 N   0  0  0  0  0  0  0  0  0  0  0  0
   67.3231  153.0944  -49.6324 C   0  0  0  0  0  0  0  0  0  0  0  0
   66.7728  153.7724  -50.7081 C   0  0  0  0  0  0  0  0  0  0  0  0
   65.2757  154.3416  -49.1826 C   0  0  0  0  0  0  0  0  0  0  0  0
   63.5529  154.6887  -47.4443 C   0  0  0  0  0  0  0  0  0  0  0  0
   68.4813  152.2540  -49.6744 C   0  0  0  0  0  0  0  0  0  0  0  0
   62.7729  155.7103  -46.9001 C   0  0  0  0  0  0  0  0  0  0  0  0
   62.0350  155.4977  -45.7537 C   0  0  0  0  0  0  0  0  0  0  0  0
   62.0886  154.2544  -45.1474 C   0  0  0  0  0  0  0  0  0  0  0  0
   62.8585  153.2266  -45.6698 C   0  0  0  0  0  0  0  0  0  0  0  0
   63.5873  153.4391  -46.8203 C   0  0  0  0  0  0  0  0  0  0  0  0
   69.7610  150.6228  -48.3002 C   0  0  0  0  0  0  0  0  0  0  0  0
   69.5299  149.6594  -47.3150 C   0  0  0  0  0  0  0  0  0  0  0  0
   70.4707  148.6855  -47.0598 C   0  0  0  0  0  0  0  0  0  0  0  0
   71.6569  148.6671  -47.7806 C   0  0  0  0  0  0  0  0  0  0  0  0
   71.8619  149.6328  -48.7338 C   0  0  0  0  0  0  0  0  0  0  0  0
   70.9505  150.6218  -49.0243 C   0  0  0  0  0  0  0  0  0  0  0  0
   69.1719  152.1351  -50.6833 O   0  0  0  0  0  0  0  0  0  0  0  0
   59.9102  153.0805  -44.5463 O   0  0  0  0  0  0  0  0  0  0  0  0
   60.5246  155.0812  -43.2336 O   0  0  0  0  0  0  0  0  0  0  0  0
   66.3136  153.3105  -48.2400 S   0  0  0  0  0  0  0  0  0  0  0  0
   60.9355  153.8539  -43.8884 S   0  0  0  0  0  0  0  0  0  0  0  0
   73.0300  149.5940  -49.4319 F   0  0  0  0  0  0  0  0  0  0  0  0
   63.6956  155.5819  -49.2789 H   0  0  0  0  0  0  0  0  0  0  0  0
   68.0755  151.6221  -47.7748 H   0  0  0  0  0  0  0  0  0  0  0  0
   66.8713  154.2484  -52.7125 H   0  0  0  0  0  0  0  0  0  0  0  0
   68.0958  153.1701  -52.0526 H   0  0  0  0  0  0  0  0  0  0  0  0
   61.8270  151.9166  -43.1284 H   0  0  0  0  0  0  0  0  0  0  0  0
   62.2753  153.3341  -42.1833 H   0  0  0  0  0  0  0  0  0  0  0  0
   62.6967  156.6514  -47.4176 H   0  0  0  0  0  0  0  0  0  0  0  0
   61.4053  156.2766  -45.3498 H   0  0  0  0  0  0  0  0  0  0  0  0
   62.8626  152.2561  -45.1879 H   0  0  0  0  0  0  0  0  0  0  0  0
   64.1071  152.6060  -47.2571 H   0  0  0  0  0  0  0  0  0  0  0  0
   68.5961  149.6595  -46.7654 H   0  0  0  0  0  0  0  0  0  0  0  0
   70.2617  147.9024  -46.3444 H   0  0  0  0  0  0  0  0  0  0  0  0
   72.3352  147.8404  -47.6569 H   0  0  0  0  0  0  0  0  0  0  0  0
   71.1341  151.3335  -49.8071 H   0  0  0  0  0  0  0  0  0  0  0  0
  1  8  2  0
  2  9  1  0
  2 28  1  0
  3 16  1  0
  3 29  1  0
  4  7  1  0
  4 30  1  0
  4 31  1  0
  5 32  1  0
  5 33  1  0
  6 25  1  0
  7  1  1  0
  7  6  2  0
  8  2  1  0
  8 25  1  0
  9 11  2  0
  9 15  1  0
 10  6  1  0
 10  3  1  0
 11 12  1  0
 11 34  1  0
 12 13  2  0
 12 35  1  0
 13 26  1  0
 14 13  1  0
 14 36  1  0
 15 14  2  0
 15 37  1  0
 16 17  2  0
 17 18  1  0
 17 38  1  0
 18 39  1  0
 19 18  2  0
 19 40  1  0
 20 19  1  0
 21 20  2  0
 21 16  1  0
 21 41  1  0
 22 10  2  0
 23 26  2  0
 26 24  2  0
 26  5  1  0
 27 20  1  0
M  END
>  <lm5_entropy_jk>  (1) 
21.052089499889224

>  <number_of_rotatable_bonds>  (1) 
6

>  <IC50_NM>  (1) 
71000

>  <charge>  (1) 
0

$$$$
