3R9D
     RDKit          3D

 41 43  0  0  0  0  0  0  0  0999 V2000
   65.6387  154.5006  -50.4479 N   0  0  0  0  0  0  0  0  0  0  0  0
   64.2180  154.9786  -48.6652 N   0  0  0  0  0  0  0  0  0  0  0  0
   68.7860  151.5981  -48.5197 N   0  0  0  0  0  0  0  0  0  0  0  0
   67.2502  153.7191  -51.9600 N   0  0  0  0  0  0  0  0  0  0  0  0
   61.6163  152.9184  -42.8108 N   0  0  0  0  0  0  0  0  0  0  0  0
   67.3184  153.0884  -49.6472 C   0  0  0  0  0  0  0  0  0  0  0  0
   66.7672  153.7657  -50.7216 C   0  0  0  0  0  0  0  0  0  0  0  0
   65.2770  154.3416  -49.1944 C   0  0  0  0  0  0  0  0  0  0  0  0
   63.5548  154.7042  -47.4633 C   0  0  0  0  0  0  0  0  0  0  0  0
   68.4837  152.2601  -49.6943 C   0  0  0  0  0  0  0  0  0  0  0  0
   62.7783  155.7244  -46.9138 C   0  0  0  0  0  0  0  0  0  0  0  0
   62.0342  155.5037  -45.7719 C   0  0  0  0  0  0  0  0  0  0  0  0
   62.0831  154.2568  -45.1711 C   0  0  0  0  0  0  0  0  0  0  0  0
   62.8450  153.2282  -45.7061 C   0  0  0  0  0  0  0  0  0  0  0  0
   63.5802  153.4496  -46.8506 C   0  0  0  0  0  0  0  0  0  0  0  0
   69.7755  150.6331  -48.3276 C   0  0  0  0  0  0  0  0  0  0  0  0
   69.5499  149.6712  -47.3400 C   0  0  0  0  0  0  0  0  0  0  0  0
   70.4942  148.7001  -47.0878 C   0  0  0  0  0  0  0  0  0  0  0  0
   71.6745  148.6796  -47.8189 C   0  0  0  0  0  0  0  0  0  0  0  0
   71.8743  149.6459  -48.7731 C   0  0  0  0  0  0  0  0  0  0  0  0
   70.9612  150.6351  -49.0568 C   0  0  0  0  0  0  0  0  0  0  0  0
   69.1701  152.1492  -50.7070 O   0  0  0  0  0  0  0  0  0  0  0  0
   59.9217  153.0586  -44.5477 O   0  0  0  0  0  0  0  0  0  0  0  0
   60.5077  155.0912  -43.2708 O   0  0  0  0  0  0  0  0  0  0  0  0
   66.3156  153.3114  -48.2510 S   0  0  0  0  0  0  0  0  0  0  0  0
   60.9345  153.8584  -43.9019 S   0  0  0  0  0  0  0  0  0  0  0  0
   73.0387  149.6114  -49.4753 F   0  0  0  0  0  0  0  0  0  0  0  0
   63.7106  155.5950  -49.3010 H   0  0  0  0  0  0  0  0  0  0  0  0
   68.0921  151.6287  -47.7934 H   0  0  0  0  0  0  0  0  0  0  0  0
   66.8578  154.2558  -52.7175 H   0  0  0  0  0  0  0  0  0  0  0  0
   68.0838  153.1662  -52.0731 H   0  0  0  0  0  0  0  0  0  0  0  0
   61.7976  151.9303  -43.1179 H   0  0  0  0  0  0  0  0  0  0  0  0
   62.2754  153.3419  -42.1793 H   0  0  0  0  0  0  0  0  0  0  0  0
   62.7124  156.6706  -47.4237 H   0  0  0  0  0  0  0  0  0  0  0  0
   61.3977  156.2797  -45.3735 H   0  0  0  0  0  0  0  0  0  0  0  0
   62.8373  152.2490  -45.2436 H   0  0  0  0  0  0  0  0  0  0  0  0
   64.1046  152.6234  -47.2946 H   0  0  0  0  0  0  0  0  0  0  0  0
   68.6186  149.6735  -46.7860 H   0  0  0  0  0  0  0  0  0  0  0  0
   70.2935  147.9227  -46.3639 H   0  0  0  0  0  0  0  0  0  0  0  0
   72.3545  147.8531  -47.7013 H   0  0  0  0  0  0  0  0  0  0  0  0
   71.1438  151.3531  -49.8343 H   0  0  0  0  0  0  0  0  0  0  0  0
  1  8  2  0
  2  9  1  0
  2 28  1  0
  3 16  1  0
  3 29  1  0
  4  7  1  0
  4 30  1  0
  4 31  1  0
  5 32  1  0
  5 33  1  0
  6 25  1  0
  7  1  1  0
  7  6  2  0
  8  2  1  0
  8 25  1  0
  9 11  2  0
  9 15  1  0
 10  6  1  0
 10  3  1  0
 11 12  1  0
 11 34  1  0
 12 13  2  0
 12 35  1  0
 13 26  1  0
 14 13  1  0
 14 36  1  0
 15 14  2  0
 15 37  1  0
 16 17  2  0
 17 18  1  0
 17 38  1  0
 18 39  1  0
 19 18  2  0
 19 40  1  0
 20 19  1  0
 21 20  2  0
 21 16  1  0
 21 41  1  0
 22 10  2  0
 23 26  2  0
 26 24  2  0
 26  5  1  0
 27 20  1  0
M  END
>  <lm5_entropy_jk>  (1) 
21.052089499889224

>  <number_of_rotatable_bonds>  (1) 
6

>  <IC50_NM>  (1) 
71000

>  <charge>  (1) 
0

$$$$
