3RAK
     RDKit          3D

 39 41  0  0  1  0  0  0  0  0999 V2000
   65.7474  154.3738  -50.5194 N   0  0  0  0  0  0  0  0  0  0  0  0
   67.4771  153.7200  -51.9567 N   0  0  0  0  0  0  0  0  0  0  0  0
   64.2019  154.7579  -48.8342 N   0  0  0  0  0  0  0  0  0  0  0  0
   61.5426  153.0386  -43.0038 N   0  0  0  0  0  0  0  0  0  0  0  0
   69.3568  148.8706  -47.0426 C   0  0  0  0  0  0  0  0  0  0  0  0
   70.3820  149.6346  -47.5805 C   0  0  0  0  0  0  0  0  0  0  0  0
   70.0981  150.6766  -48.4463 C   0  0  0  0  0  0  0  0  0  0  0  0
   67.7505  150.2088  -48.2169 C   0  0  0  0  0  0  0  0  0  0  0  0
   68.0377  149.1571  -47.3596 C   0  0  0  0  0  0  0  0  0  0  0  0
   68.7781  150.9783  -48.7592 C   0  0  0  0  0  0  0  0  0  0  0  0
   68.5283  152.0594  -49.7686 C   0  0  0  0  0  0  0  0  0  0  0  0
   67.3658  152.8873  -49.6999 C   0  0  0  0  0  0  0  0  0  0  0  0
   66.8899  153.6554  -50.7640 C   0  0  0  0  0  0  0  0  0  0  0  0
   65.3071  154.1426  -49.3006 C   0  0  0  0  0  0  0  0  0  0  0  0
   63.4889  154.5180  -47.6553 C   0  0  0  0  0  0  0  0  0  0  0  0
   63.5099  153.3006  -46.9688 C   0  0  0  0  0  0  0  0  0  0  0  0
   62.7288  153.1333  -45.8418 C   0  0  0  0  0  0  0  0  0  0  0  0
   61.9389  154.1845  -45.3924 C   0  0  0  0  0  0  0  0  0  0  0  0
   61.8848  155.3863  -46.0781 C   0  0  0  0  0  0  0  0  0  0  0  0
   62.6671  155.5507  -47.2023 C   0  0  0  0  0  0  0  0  0  0  0  0
   59.7231  153.0922  -44.7275 O   0  0  0  0  0  0  0  0  0  0  0  0
   60.3555  155.1422  -43.5290 O   0  0  0  0  0  0  0  0  0  0  0  0
   69.3489  152.2117  -50.6803 O   0  0  0  0  0  0  0  0  0  0  0  0
   66.2822  153.0653  -48.3485 S   0  0  0  0  0  0  0  0  0  0  0  0
   60.7699  153.8879  -44.1252 S   0  0  0  0  0  0  0  0  0  0  0  0
   69.5696  148.0250  -46.4063 H   0  0  0  0  0  0  0  0  0  0  0  0
   71.4108  149.3824  -47.3732 H   0  0  0  0  0  0  0  0  0  0  0  0
   67.0365  154.1646  -52.7505 H   0  0  0  0  0  0  0  0  0  0  0  0
   68.2913  153.1367  -52.0712 H   0  0  0  0  0  0  0  0  0  0  0  0
   70.8891  151.2453  -48.9118 H   0  0  0  0  0  0  0  0  0  0  0  0
   63.7449  155.4059  -49.4819 H   0  0  0  0  0  0  0  0  0  0  0  0
   66.7230  150.3916  -48.4892 H   0  0  0  0  0  0  0  0  0  0  0  0
   61.5298  152.0223  -43.1764 H   0  0  0  0  0  0  0  0  0  0  0  0
   61.3461  153.3491  -42.0677 H   0  0  0  0  0  0  0  0  0  0  0  0
   67.2386  148.5537  -46.9583 H   0  0  0  0  0  0  0  0  0  0  0  0
   64.0720  152.4637  -47.3442 H   0  0  0  0  0  0  0  0  0  0  0  0
   62.7006  152.1797  -45.3333 H   0  0  0  0  0  0  0  0  0  0  0  0
   61.2098  156.1654  -45.7597 H   0  0  0  0  0  0  0  0  0  0  0  0
   62.5988  156.4530  -47.7842 H   0  0  0  0  0  0  0  0  0  0  0  0
  1 13  1  0
  1 14  2  0
  2 13  1  0
  2 28  1  0
  2 29  1  0
  3 14  1  0
  3 15  1  0
  3 31  1  0
  4 25  1  0
  4 33  1  0
  4 34  1  0
  5  6  2  0
  5  9  1  0
  5 26  1  0
  6  7  1  0
  6 27  1  0
  7 10  2  0
  7 30  1  0
  8  9  2  0
  8 10  1  0
  8 32  1  0
  9 35  1  0
 11 10  1  0
 11 12  1  0
 11 23  2  0
 12 13  2  0
 12 24  1  0
 14 24  1  0
 15 16  2  0
 15 20  1  0
 16 17  1  0
 16 36  1  0
 17 18  2  0
 17 37  1  0
 18 19  1  0
 18 25  1  0
 19 20  2  0
 19 38  1  0
 20 39  1  0
 21 25  2  0
 22 25  2  0
M  END
>  <lm5_entropy_jk>  (1) 
22.952794734129974

>  <number_of_rotatable_bonds>  (1) 
5

>  <IC50_NM>  (1) 
130

>  <charge>  (1) 
0

$$$$
