3QTZ
     RDKit          3D

 39 41  0  0  0  0  0  0  0  0999 V2000
   65.8440  154.2328  -50.4828 N   0  0  0  0  0  0  0  0  0  0  0  0
   64.2046  154.5855  -48.8788 N   0  0  0  0  0  0  0  0  0  0  0  0
   67.6470  153.5982  -51.8373 N   0  0  0  0  0  0  0  0  0  0  0  0
   61.5725  152.9936  -43.0117 N   0  0  0  0  0  0  0  0  0  0  0  0
   67.4542  152.7829  -49.5784 C   0  0  0  0  0  0  0  0  0  0  0  0
   67.0136  153.5388  -50.6681 C   0  0  0  0  0  0  0  0  0  0  0  0
   65.3521  153.9991  -49.2853 C   0  0  0  0  0  0  0  0  0  0  0  0
   63.4823  154.3771  -47.6982 C   0  0  0  0  0  0  0  0  0  0  0  0
   68.6416  151.9877  -49.5743 C   0  0  0  0  0  0  0  0  0  0  0  0
   68.8498  150.9230  -48.5310 C   0  0  0  0  0  0  0  0  0  0  0  0
   67.8346  150.0482  -48.1597 C   0  0  0  0  0  0  0  0  0  0  0  0
   68.0887  149.0203  -47.2624 C   0  0  0  0  0  0  0  0  0  0  0  0
   69.3530  148.8693  -46.7108 C   0  0  0  0  0  0  0  0  0  0  0  0
   70.3346  149.7623  -47.0786 C   0  0  0  0  0  0  0  0  0  0  0  0
   70.1237  150.7689  -47.9956 C   0  0  0  0  0  0  0  0  0  0  0  0
   62.6355  155.4077  -47.2868 C   0  0  0  0  0  0  0  0  0  0  0  0
   61.8558  155.2685  -46.1574 C   0  0  0  0  0  0  0  0  0  0  0  0
   61.9393  154.0969  -45.4225 C   0  0  0  0  0  0  0  0  0  0  0  0
   62.7504  153.0470  -45.8327 C   0  0  0  0  0  0  0  0  0  0  0  0
   63.5254  153.1870  -46.9677 C   0  0  0  0  0  0  0  0  0  0  0  0
   69.5162  152.1441  -50.4311 O   0  0  0  0  0  0  0  0  0  0  0  0
   59.7266  153.0269  -44.7047 O   0  0  0  0  0  0  0  0  0  0  0  0
   60.3863  155.0943  -43.5549 O   0  0  0  0  0  0  0  0  0  0  0  0
   66.3041  152.9460  -48.2798 S   0  0  0  0  0  0  0  0  0  0  0  0
   60.7873  153.8286  -44.1349 S   0  0  0  0  0  0  0  0  0  0  0  0
   71.5667  149.6499  -46.5004 F   0  0  0  0  0  0  0  0  0  0  0  0
   63.7645  155.2332  -49.5360 H   0  0  0  0  0  0  0  0  0  0  0  0
   67.2424  154.0777  -52.6314 H   0  0  0  0  0  0  0  0  0  0  0  0
   68.4926  153.0564  -51.9160 H   0  0  0  0  0  0  0  0  0  0  0  0
   61.5652  151.9753  -43.1701 H   0  0  0  0  0  0  0  0  0  0  0  0
   61.3941  153.3197  -42.0778 H   0  0  0  0  0  0  0  0  0  0  0  0
   66.8503  150.1393  -48.5931 H   0  0  0  0  0  0  0  0  0  0  0  0
   67.3040  148.3332  -46.9897 H   0  0  0  0  0  0  0  0  0  0  0  0
   69.5631  148.0654  -46.0244 H   0  0  0  0  0  0  0  0  0  0  0  0
   70.9266  151.4161  -48.3038 H   0  0  0  0  0  0  0  0  0  0  0  0
   62.5448  156.2837  -47.9046 H   0  0  0  0  0  0  0  0  0  0  0  0
   61.1628  156.0448  -45.8721 H   0  0  0  0  0  0  0  0  0  0  0  0
   62.7448  152.1142  -45.2866 H   0  0  0  0  0  0  0  0  0  0  0  0
   64.1005  152.3469  -47.3137 H   0  0  0  0  0  0  0  0  0  0  0  0
  1  7  2  0
  2  8  1  0
  2 27  1  0
  3  6  1  0
  3 28  1  0
  3 29  1  0
  4 30  1  0
  4 31  1  0
  5 24  1  0
  6  1  1  0
  6  5  2  0
  7  2  1  0
  7 24  1  0
  8 16  2  0
  8 20  1  0
  9  5  1  0
  9 10  1  0
 10 15  1  0
 10 11  2  0
 11 12  1  0
 11 32  1  0
 12 13  2  0
 12 33  1  0
 13 34  1  0
 14 26  1  0
 14 13  1  0
 15 14  2  0
 15 35  1  0
 16 17  1  0
 16 36  1  0
 17 18  2  0
 17 37  1  0
 18 25  1  0
 19 18  1  0
 19 38  1  0
 20 19  2  0
 20 39  1  0
 21  9  2  0
 22 25  2  0
 25 23  2  0
 25  4  1  0
M  END
>  <lm5_entropy_jk>  (1) 
22.397995528352578

>  <number_of_rotatable_bonds>  (1) 
5

>  <IC50_NM>  (1) 
50

>  <charge>  (1) 
0

$$$$
