3R8V
     RDKit          3D

 33 34  0  0  1  0  0  0  0  0999 V2000
   65.7405  154.5702  -50.2863 N   0  0  0  0  0  0  0  0  0  0  0  0
   67.3820  153.5357  -51.5916 N   0  0  0  0  0  0  0  0  0  0  0  0
   64.3168  155.3983  -48.6170 N   0  0  0  0  0  0  0  0  0  0  0  0
   67.8074  150.8078  -44.2221 N   0  0  0  0  0  0  0  0  0  0  0  0
   66.7751  153.6794  -50.3997 C   0  0  0  0  0  0  0  0  0  0  0  0
   67.1056  152.9793  -49.2379 C   0  0  0  0  0  0  0  0  0  0  0  0
   68.2046  152.0803  -49.0547 C   0  0  0  0  0  0  0  0  0  0  0  0
   68.1884  151.0835  -47.9116 C   0  0  0  0  0  0  0  0  0  0  0  0
   67.9992  151.4247  -46.5790 C   0  0  0  0  0  0  0  0  0  0  0  0
   67.9721  150.4242  -45.6291 C   0  0  0  0  0  0  0  0  0  0  0  0
   68.0793  149.0861  -45.9351 C   0  0  0  0  0  0  0  0  0  0  0  0
   68.3010  148.7585  -47.2621 C   0  0  0  0  0  0  0  0  0  0  0  0
   68.3720  149.7417  -48.2350 C   0  0  0  0  0  0  0  0  0  0  0  0
   65.2328  154.5037  -49.0814 C   0  0  0  0  0  0  0  0  0  0  0  0
   63.7120  155.2755  -47.2942 C   0  0  0  0  0  0  0  0  0  0  0  0
   62.7994  154.0931  -47.0859 C   0  0  0  0  0  0  0  0  0  0  0  0
   62.5815  153.5543  -45.8941 C   0  0  0  0  0  0  0  0  0  0  0  0
   69.1609  152.0511  -49.8266 O   0  0  0  0  0  0  0  0  0  0  0  0
   68.4286  151.7801  -43.8454 O   0  0  0  0  0  0  0  0  0  0  0  0
   67.0844  150.1184  -43.5349 O   0  0  0  0  0  0  0  0  0  0  0  0
   65.8857  153.3074  -48.0312 S   0  0  0  0  0  0  0  0  0  0  0  0
   67.0825  154.0791  -52.3968 H   0  0  0  0  0  0  0  0  0  0  0  0
   68.1910  152.9504  -51.6700 H   0  0  0  0  0  0  0  0  0  0  0  0
   67.8695  152.4398  -46.2505 H   0  0  0  0  0  0  0  0  0  0  0  0
   67.9864  148.3326  -45.1641 H   0  0  0  0  0  0  0  0  0  0  0  0
   68.3842  147.7198  -47.5317 H   0  0  0  0  0  0  0  0  0  0  0  0
   68.5393  149.4622  -49.2632 H   0  0  0  0  0  0  0  0  0  0  0  0
   63.6397  155.6738  -49.3279 H   0  0  0  0  0  0  0  0  0  0  0  0
   63.1512  156.1993  -47.1664 H   0  0  0  0  0  0  0  0  0  0  0  0
   64.4848  155.2813  -46.5252 H   0  0  0  0  0  0  0  0  0  0  0  0
   61.9107  152.7185  -45.7676 H   0  0  0  0  0  0  0  0  0  0  0  0
   63.0692  153.9228  -44.9993 H   0  0  0  0  0  0  0  0  0  0  0  0
   62.2798  153.7095  -47.9583 H   0  0  0  0  0  0  0  0  0  0  0  0
  1  5  1  0
  1 14  2  0
  2  5  1  0
  2 22  1  0
  2 23  1  0
  3 14  1  0
  3 15  1  0
  3 28  1  0
  4 10  1  0
  4 19  1  0
  4 20  2  0
  5  6  2  0
  6 21  1  0
  7  6  1  0
  7  8  1  0
  7 18  2  0
  8  9  2  0
  8 13  1  0
  9 10  1  0
  9 24  1  0
 10 11  2  0
 11 12  1  0
 11 25  1  0
 12 13  2  0
 12 26  1  0
 13 27  1  0
 14 21  1  0
 15 16  1  0
 15 29  1  0
 15 30  1  0
 16 17  2  0
 16 33  1  0
 17 31  1  0
 17 32  1  0
M  CHG  2   4   1  19  -1
M  END
>  <lm5_entropy_jk>  (1) 
33.50945403317048

>  <number_of_rotatable_bonds>  (1) 
6

>  <IC50_NM>  (1) 
2900

>  <charge>  (1) 
0

$$$$
