3S00
     RDKit          3D

 28 29  0  0  1  0  0  0  0  0999 V2000
   65.9597  154.3397  -50.1786 N   0  0  0  0  0  0  0  0  0  0  0  0
   67.5405  153.4093  -51.6247 N   0  0  0  0  0  0  0  0  0  0  0  0
   64.4769  154.8814  -48.4354 N   0  0  0  0  0  0  0  0  0  0  0  0
   66.9871  153.4637  -50.4129 C   0  0  0  0  0  0  0  0  0  0  0  0
   67.3836  152.6603  -49.3409 C   0  0  0  0  0  0  0  0  0  0  0  0
   68.4445  151.7082  -49.3905 C   0  0  0  0  0  0  0  0  0  0  0  0
   68.6857  150.7965  -48.2400 C   0  0  0  0  0  0  0  0  0  0  0  0
   65.4827  154.1499  -48.9681 C   0  0  0  0  0  0  0  0  0  0  0  0
   63.7069  154.4043  -47.2810 C   0  0  0  0  0  0  0  0  0  0  0  0
   62.9679  155.5365  -46.6391 C   0  0  0  0  0  0  0  0  0  0  0  0
   63.0204  155.8204  -45.3495 C   0  0  0  0  0  0  0  0  0  0  0  0
   69.8347  149.3823  -46.6020 C   0  0  0  0  0  0  0  0  0  0  0  0
   68.5094  149.5069  -46.3149 C   0  0  0  0  0  0  0  0  0  0  0  0
   67.8504  150.3168  -47.2699 C   0  0  0  0  0  0  0  0  0  0  0  0
   69.2225  151.6572  -50.3512 O   0  0  0  0  0  0  0  0  0  0  0  0
   70.9960  148.5322  -45.6723 Cl  0  0  0  0  0  0  0  0  0  0  0  0
   66.2841  152.9473  -48.0142 S   0  0  0  0  0  0  0  0  0  0  0  0
   70.2908  150.2047  -48.0341 S   0  0  0  0  0  0  0  0  0  0  0  0
   67.1612  153.9553  -52.3781 H   0  0  0  0  0  0  0  0  0  0  0  0
   68.3072  152.7643  -51.7372 H   0  0  0  0  0  0  0  0  0  0  0  0
   63.9094  155.3661  -49.1126 H   0  0  0  0  0  0  0  0  0  0  0  0
   64.3757  153.9437  -46.5570 H   0  0  0  0  0  0  0  0  0  0  0  0
   63.0049  153.6270  -47.5940 H   0  0  0  0  0  0  0  0  0  0  0  0
   68.0168  149.0376  -45.4776 H   0  0  0  0  0  0  0  0  0  0  0  0
   66.7878  150.4949  -47.2339 H   0  0  0  0  0  0  0  0  0  0  0  0
   62.4642  156.6421  -44.9245 H   0  0  0  0  0  0  0  0  0  0  0  0
   63.5990  155.2179  -44.6610 H   0  0  0  0  0  0  0  0  0  0  0  0
   62.3529  156.1343  -47.3005 H   0  0  0  0  0  0  0  0  0  0  0  0
  1  4  1  0
  1  8  2  0
  2  4  1  0
  2 19  1  0
  2 20  1  0
  3  8  1  0
  3  9  1  0
  3 21  1  0
  4  5  2  0
  5  6  1  0
  5 17  1  0
  6  7  1  0
  6 15  2  0
  7 14  2  0
  7 18  1  0
  8 17  1  0
  9 10  1  0
  9 22  1  0
  9 23  1  0
 10 11  2  0
 10 28  1  0
 11 26  1  0
 11 27  1  0
 12 13  2  0
 12 16  1  0
 12 18  1  0
 13 14  1  0
 13 24  1  0
 14 25  1  0
M  END
>  <lm5_entropy_jk>  (1) 
31.418959509749985

>  <number_of_rotatable_bonds>  (1) 
5

>  <IC50_NM>  (1) 
12000

>  <charge>  (1) 
0

$$$$
