3RKB
     RDKit          3D

 39 41  0  0  0  0  0  0  0  0999 V2000
   67.4072  152.8782  -49.7097 C   0  0  0  0  0  0  0  0  0  0  0  0
   66.8383  153.6851  -50.7077 C   0  0  0  0  0  0  0  0  0  0  0  0
   65.7720  154.4483  -50.3387 N   0  0  0  0  0  0  0  0  0  0  0  0
   65.4726  154.2427  -49.0673 C   0  0  0  0  0  0  0  0  0  0  0  0
   66.4809  153.0726  -48.2421 S   0  0  0  0  0  0  0  0  0  0  0  0
   68.5326  152.0422  -49.9358 C   0  0  0  0  0  0  0  0  0  0  0  0
   67.2625  153.6982  -51.9659 N   0  0  0  0  0  0  0  0  0  0  0  0
   64.4908  154.8709  -48.4372 N   0  0  0  0  0  0  0  0  0  0  0  0
   69.2062  152.1356  -50.9660 O   0  0  0  0  0  0  0  0  0  0  0  0
   69.8430  148.9947  -47.3447 C   0  0  0  0  0  0  0  0  0  0  0  0
   70.7357  149.7932  -47.9363 N   0  0  0  0  0  0  0  0  0  0  0  0
   70.2851  150.7530  -48.7413 C   0  0  0  0  0  0  0  0  0  0  0  0
   68.9345  150.9780  -48.9528 C   0  0  0  0  0  0  0  0  0  0  0  0
   68.0161  150.1444  -48.3282 C   0  0  0  0  0  0  0  0  0  0  0  0
   68.4758  149.1239  -47.5147 C   0  0  0  0  0  0  0  0  0  0  0  0
   62.6638  153.2043  -45.5184 C   0  0  0  0  0  0  0  0  0  0  0  0
   63.1614  153.3801  -46.9464 C   0  0  0  0  0  0  0  0  0  0  0  0
   64.0467  154.6172  -47.0751 C   0  0  0  0  0  0  0  0  0  0  0  0
   63.3116  155.8562  -46.5817 C   0  0  0  0  0  0  0  0  0  0  0  0
   62.8016  155.6822  -45.1571 C   0  0  0  0  0  0  0  0  0  0  0  0
   61.9182  154.4426  -45.0423 C   0  0  0  0  0  0  0  0  0  0  0  0
   66.8845  154.3345  -52.6520 H   0  0  0  0  0  0  0  0  0  0  0  0
   68.1259  153.2046  -52.1336 H   0  0  0  0  0  0  0  0  0  0  0  0
   63.8468  155.3853  -49.0326 H   0  0  0  0  0  0  0  0  0  0  0  0
   70.2430  148.2030  -46.7250 H   0  0  0  0  0  0  0  0  0  0  0  0
   71.0153  151.3671  -49.2539 H   0  0  0  0  0  0  0  0  0  0  0  0
   66.9563  150.2695  -48.5034 H   0  0  0  0  0  0  0  0  0  0  0  0
   67.7980  148.4364  -47.0354 H   0  0  0  0  0  0  0  0  0  0  0  0
   63.5094  153.0132  -44.8547 H   0  0  0  0  0  0  0  0  0  0  0  0
   62.0387  152.3226  -45.4366 H   0  0  0  0  0  0  0  0  0  0  0  0
   63.7181  152.5013  -47.2581 H   0  0  0  0  0  0  0  0  0  0  0  0
   62.3151  153.4931  -47.6306 H   0  0  0  0  0  0  0  0  0  0  0  0
   64.9332  154.4706  -46.4651 H   0  0  0  0  0  0  0  0  0  0  0  0
   62.4697  156.0461  -47.2492 H   0  0  0  0  0  0  0  0  0  0  0  0
   63.9761  156.7152  -46.6457 H   0  0  0  0  0  0  0  0  0  0  0  0
   62.2540  156.5741  -44.8514 H   0  0  0  0  0  0  0  0  0  0  0  0
   63.6517  155.5792  -44.4767 H   0  0  0  0  0  0  0  0  0  0  0  0
   61.5742  154.3048  -44.0166 H   0  0  0  0  0  0  0  0  0  0  0  0
   61.0333  154.5981  -45.6651 H   0  0  0  0  0  0  0  0  0  0  0  0
  1  5  1  0
  2  3  1  0
  2  1  2  0
  3  4  2  0
  4  8  1  0
  4  5  1  0
  6  1  1  0
  6 13  1  0
  7  2  1  0
  7 22  1  0
  7 23  1  0
  8 18  1  0
  8 24  1  0
  9  6  2  0
 10 25  1  0
 11 10  2  0
 12 11  1  0
 12 26  1  0
 13 12  2  0
 13 14  1  0
 14 15  2  0
 14 27  1  0
 15 10  1  0
 15 28  1  0
 16 21  1  0
 16 29  1  0
 16 30  1  0
 17 16  1  0
 17 31  1  0
 17 32  1  0
 18 17  1  0
 18 19  1  0
 18 33  1  0
 19 20  1  0
 19 34  1  0
 19 35  1  0
 20 21  1  0
 20 36  1  0
 20 37  1  0
 21 38  1  0
 21 39  1  0
M  END
>  <lm5_entropy_jk>  (1) 
20.214453483104165

>  <number_of_rotatable_bonds>  (1) 
4

>  <IC50_NM>  (1) 
380

>  <charge>  (1) 
0

$$$$
