3S00
     RDKit          3D

 28 29  0  0  1  0  0  0  0  0999 V2000
   65.8233  154.1605  -50.2819 N   0  0  0  0  0  0  0  0  0  0  0  0
   67.5784  153.4163  -51.6304 N   0  0  0  0  0  0  0  0  0  0  0  0
   64.2377  154.5715  -48.6073 N   0  0  0  0  0  0  0  0  0  0  0  0
   66.9439  153.3926  -50.4630 C   0  0  0  0  0  0  0  0  0  0  0  0
   67.3431  152.6044  -49.3738 C   0  0  0  0  0  0  0  0  0  0  0  0
   68.5146  151.7937  -49.3847 C   0  0  0  0  0  0  0  0  0  0  0  0
   68.7815  150.7859  -48.3273 C   0  0  0  0  0  0  0  0  0  0  0  0
   65.3146  153.9491  -49.0831 C   0  0  0  0  0  0  0  0  0  0  0  0
   63.5806  154.1997  -47.3631 C   0  0  0  0  0  0  0  0  0  0  0  0
   62.8576  155.3839  -46.7979 C   0  0  0  0  0  0  0  0  0  0  0  0
   63.0782  155.8806  -45.5912 C   0  0  0  0  0  0  0  0  0  0  0  0
   69.9506  149.1810  -46.9190 C   0  0  0  0  0  0  0  0  0  0  0  0
   68.6156  149.1560  -46.6817 C   0  0  0  0  0  0  0  0  0  0  0  0
   67.9429  150.0915  -47.5035 C   0  0  0  0  0  0  0  0  0  0  0  0
   69.3727  151.9098  -50.2732 O   0  0  0  0  0  0  0  0  0  0  0  0
   71.1558  148.2223  -46.1293 Cl  0  0  0  0  0  0  0  0  0  0  0  0
   66.1807  152.8054  -48.0902 S   0  0  0  0  0  0  0  0  0  0  0  0
   70.4188  150.2779  -48.1572 S   0  0  0  0  0  0  0  0  0  0  0  0
   67.2108  153.9447  -52.4085 H   0  0  0  0  0  0  0  0  0  0  0  0
   68.4234  152.8694  -51.6946 H   0  0  0  0  0  0  0  0  0  0  0  0
   63.6896  155.1450  -49.2508 H   0  0  0  0  0  0  0  0  0  0  0  0
   64.3179  153.8383  -46.6496 H   0  0  0  0  0  0  0  0  0  0  0  0
   62.8683  153.3868  -47.5437 H   0  0  0  0  0  0  0  0  0  0  0  0
   68.1306  148.4802  -45.9995 H   0  0  0  0  0  0  0  0  0  0  0  0
   66.8719  150.2026  -47.4970 H   0  0  0  0  0  0  0  0  0  0  0  0
   62.5166  156.7333  -45.2380 H   0  0  0  0  0  0  0  0  0  0  0  0
   63.8045  155.4467  -44.9149 H   0  0  0  0  0  0  0  0  0  0  0  0
   62.1201  155.8338  -47.4505 H   0  0  0  0  0  0  0  0  0  0  0  0
  1  4  1  0
  1  8  2  0
  2  4  1  0
  2 19  1  0
  2 20  1  0
  3  8  1  0
  3  9  1  0
  3 21  1  0
  4  5  2  0
  5  6  1  0
  5 17  1  0
  6  7  1  0
  6 15  2  0
  7 14  2  0
  7 18  1  0
  8 17  1  0
  9 10  1  0
  9 22  1  0
  9 23  1  0
 10 11  2  0
 10 28  1  0
 11 26  1  0
 11 27  1  0
 12 13  2  0
 12 16  1  0
 12 18  1  0
 13 14  1  0
 13 24  1  0
 14 25  1  0
M  END
>  <lm5_entropy_jk>  (1) 
31.418959509749985

>  <number_of_rotatable_bonds>  (1) 
5

>  <IC50_NM>  (1) 
12000

>  <charge>  (1) 
0

$$$$
