3R9N
     RDKit          3D

 42 44  0  0  1  0  0  0  0  0999 V2000
   67.8904  150.7244  -44.1827 N   0  0  0  0  0  0  0  0  0  0  0  0
   65.6024  154.5958  -49.9759 N   0  0  0  0  0  0  0  0  0  0  0  0
   64.1093  155.2152  -48.2871 N   0  0  0  0  0  0  0  0  0  0  0  0
   67.2403  153.6534  -51.3308 N   0  0  0  0  0  0  0  0  0  0  0  0
   68.1100  149.0390  -45.9557 C   0  0  0  0  0  0  0  0  0  0  0  0
   68.0318  150.3698  -45.6042 C   0  0  0  0  0  0  0  0  0  0  0  0
   68.0526  151.3859  -46.5366 C   0  0  0  0  0  0  0  0  0  0  0  0
   68.2015  151.0689  -47.8777 C   0  0  0  0  0  0  0  0  0  0  0  0
   68.3683  149.7398  -48.2437 C   0  0  0  0  0  0  0  0  0  0  0  0
   68.3044  148.7376  -47.2932 C   0  0  0  0  0  0  0  0  0  0  0  0
   68.1154  152.0701  -48.9964 C   0  0  0  0  0  0  0  0  0  0  0  0
   67.0382  152.9983  -49.0191 C   0  0  0  0  0  0  0  0  0  0  0  0
   66.6586  153.7445  -50.1349 C   0  0  0  0  0  0  0  0  0  0  0  0
   65.0847  154.4373  -48.7770 C   0  0  0  0  0  0  0  0  0  0  0  0
   63.5206  155.0293  -46.9705 C   0  0  0  0  0  0  0  0  0  0  0  0
   62.5638  153.8464  -46.8700 C   0  0  0  0  0  0  0  0  0  0  0  0
   62.0545  153.7219  -45.4357 C   0  0  0  0  0  0  0  0  0  0  0  0
   61.3659  155.0002  -44.9665 C   0  0  0  0  0  0  0  0  0  0  0  0
   62.2935  156.1997  -45.1238 C   0  0  0  0  0  0  0  0  0  0  0  0
   62.8148  156.3113  -46.5513 C   0  0  0  0  0  0  0  0  0  0  0  0
   68.3909  151.7724  -43.8275 O   0  0  0  0  0  0  0  0  0  0  0  0
   67.3061  149.9440  -43.4629 O   0  0  0  0  0  0  0  0  0  0  0  0
   68.9475  152.0127  -49.9043 O   0  0  0  0  0  0  0  0  0  0  0  0
   65.8093  153.2114  -47.7956 S   0  0  0  0  0  0  0  0  0  0  0  0
   68.0143  148.2652  -45.2079 H   0  0  0  0  0  0  0  0  0  0  0  0
   67.9310  152.3953  -46.1938 H   0  0  0  0  0  0  0  0  0  0  0  0
   63.5436  155.6933  -48.9646 H   0  0  0  0  0  0  0  0  0  0  0  0
   66.8679  154.1708  -52.1062 H   0  0  0  0  0  0  0  0  0  0  0  0
   68.0474  153.0551  -51.3968 H   0  0  0  0  0  0  0  0  0  0  0  0
   68.5027  149.4932  -49.2838 H   0  0  0  0  0  0  0  0  0  0  0  0
   68.3715  147.7050  -47.5898 H   0  0  0  0  0  0  0  0  0  0  0  0
   64.3465  154.8541  -46.2801 H   0  0  0  0  0  0  0  0  0  0  0  0
   63.0707  152.9296  -47.1640 H   0  0  0  0  0  0  0  0  0  0  0  0
   61.7343  153.9958  -47.5645 H   0  0  0  0  0  0  0  0  0  0  0  0
   62.9005  153.5053  -44.7746 H   0  0  0  0  0  0  0  0  0  0  0  0
   61.3830  152.8723  -45.3425 H   0  0  0  0  0  0  0  0  0  0  0  0
   61.0548  154.8951  -43.9280 H   0  0  0  0  0  0  0  0  0  0  0  0
   60.4627  155.1701  -45.5567 H   0  0  0  0  0  0  0  0  0  0  0  0
   61.7836  157.1197  -44.8433 H   0  0  0  0  0  0  0  0  0  0  0  0
   63.1407  156.0934  -44.4398 H   0  0  0  0  0  0  0  0  0  0  0  0
   61.9821  156.4978  -47.2375 H   0  0  0  0  0  0  0  0  0  0  0  0
   63.5022  157.1468  -46.6270 H   0  0  0  0  0  0  0  0  0  0  0  0
  1  6  1  0
  1 21  1  0
  1 22  2  0
  2 13  1  0
  2 14  2  0
  3 14  1  0
  3 15  1  0
  3 27  1  0
  4 13  1  0
  4 28  1  0
  4 29  1  0
  5  6  2  0
  5 10  1  0
  5 25  1  0
  6  7  1  0
  7  8  2  0
  7 26  1  0
  8  9  1  0
  9 10  2  0
  9 30  1  0
 10 31  1  0
 11  8  1  0
 11 12  1  0
 11 23  2  0
 12 13  2  0
 12 24  1  0
 14 24  1  0
 15 16  1  0
 15 20  1  0
 15 32  1  0
 16 17  1  0
 16 33  1  0
 16 34  1  0
 17 18  1  0
 17 35  1  0
 17 36  1  0
 18 19  1  0
 18 37  1  0
 18 38  1  0
 19 20  1  0
 19 39  1  0
 19 40  1  0
 20 41  1  0
 20 42  1  0
M  CHG  2   1   1  21  -1
M  END
>  <lm5_entropy_jk>  (1) 
22.585594734129973

>  <number_of_rotatable_bonds>  (1) 
5

>  <IC50_NM>  (1) 
1400

>  <charge>  (1) 
0

$$$$
