3R8Z
     RDKit          3D

 30 31  0  0  1  0  0  0  0  0999 V2000
   65.7717  154.5114  -50.5494 N   0  0  0  0  0  0  0  0  0  0  0  0
   67.3495  153.5240  -51.9569 N   0  0  0  0  0  0  0  0  0  0  0  0
   68.6326  148.7581  -46.7947 N   0  0  0  0  0  0  0  0  0  0  0  0
   64.3968  155.2412  -48.8089 N   0  0  0  0  0  0  0  0  0  0  0  0
   66.8141  153.6467  -50.7438 C   0  0  0  0  0  0  0  0  0  0  0  0
   67.2159  152.9014  -49.6277 C   0  0  0  0  0  0  0  0  0  0  0  0
   68.2335  151.9063  -49.6770 C   0  0  0  0  0  0  0  0  0  0  0  0
   68.3573  150.8604  -48.6000 C   0  0  0  0  0  0  0  0  0  0  0  0
   67.2453  150.1918  -48.1089 C   0  0  0  0  0  0  0  0  0  0  0  0
   67.4293  149.1496  -47.2111 C   0  0  0  0  0  0  0  0  0  0  0  0
   69.6903  149.4100  -47.2651 C   0  0  0  0  0  0  0  0  0  0  0  0
   69.6113  150.4567  -48.1704 C   0  0  0  0  0  0  0  0  0  0  0  0
   65.3577  154.4624  -49.2974 C   0  0  0  0  0  0  0  0  0  0  0  0
   63.9030  155.1460  -47.4492 C   0  0  0  0  0  0  0  0  0  0  0  0
   62.8133  154.1226  -47.2819 C   0  0  0  0  0  0  0  0  0  0  0  0
   62.8052  153.2070  -46.3292 C   0  0  0  0  0  0  0  0  0  0  0  0
   69.0059  151.8250  -50.6355 O   0  0  0  0  0  0  0  0  0  0  0  0
   66.1697  153.2915  -48.2841 S   0  0  0  0  0  0  0  0  0  0  0  0
   67.0904  154.1524  -52.7064 H   0  0  0  0  0  0  0  0  0  0  0  0
   68.1815  152.9538  -52.0055 H   0  0  0  0  0  0  0  0  0  0  0  0
   66.2527  150.4541  -48.4334 H   0  0  0  0  0  0  0  0  0  0  0  0
   66.5792  148.6070  -46.8211 H   0  0  0  0  0  0  0  0  0  0  0  0
   70.6597  149.0518  -46.9399 H   0  0  0  0  0  0  0  0  0  0  0  0
   70.5087  150.9204  -48.5509 H   0  0  0  0  0  0  0  0  0  0  0  0
   63.8090  155.7359  -49.4777 H   0  0  0  0  0  0  0  0  0  0  0  0
   63.5219  156.1325  -47.1880 H   0  0  0  0  0  0  0  0  0  0  0  0
   64.7283  154.9318  -46.7782 H   0  0  0  0  0  0  0  0  0  0  0  0
   62.0066  154.1980  -48.0017 H   0  0  0  0  0  0  0  0  0  0  0  0
   63.6247  153.1184  -45.6277 H   0  0  0  0  0  0  0  0  0  0  0  0
   61.9879  152.5172  -46.2026 H   0  0  0  0  0  0  0  0  0  0  0  0
  1  5  1  0
  1 13  2  0
  2  5  1  0
  2 19  1  0
  2 20  1  0
  3 10  2  0
  3 11  1  0
  4 13  1  0
  4 14  1  0
  4 25  1  0
  5  6  2  0
  6 18  1  0
  7  6  1  0
  7  8  1  0
  7 17  2  0
  8  9  2  0
  8 12  1  0
  9 10  1  0
  9 21  1  0
 10 22  1  0
 11 12  2  0
 11 23  1  0
 12 24  1  0
 13 18  1  0
 14 15  1  0
 14 26  1  0
 14 27  1  0
 15 16  2  0
 15 28  1  0
 16 29  1  0
 16 30  1  0
M  END
>  <lm5_entropy_jk>  (1) 
22.952794734129974

>  <number_of_rotatable_bonds>  (1) 
5

>  <IC50_NM>  (1) 
49000

>  <charge>  (1) 
0

$$$$
