3QTS
     RDKit          3D

 38 40  0  0  1  0  0  0  0  0999 V2000
   65.6801  154.3547  -50.1572 N   0  0  0  0  0  0  0  0  0  0  0  0
   67.3773  153.5103  -51.5384 N   0  0  0  0  0  0  0  0  0  0  0  0
   64.0875  154.8002  -48.4984 N   0  0  0  0  0  0  0  0  0  0  0  0
   68.6355  149.3171  -45.7471 C   0  0  0  0  0  0  0  0  0  0  0  0
   68.3812  150.6698  -45.5697 C   0  0  0  0  0  0  0  0  0  0  0  0
   68.2833  151.5131  -46.6735 C   0  0  0  0  0  0  0  0  0  0  0  0
   68.7124  149.6535  -48.1329 C   0  0  0  0  0  0  0  0  0  0  0  0
   68.8087  148.8245  -47.0320 C   0  0  0  0  0  0  0  0  0  0  0  0
   68.1561  150.4100  -43.2225 C   0  0  0  0  0  0  0  0  0  0  0  0
   68.4206  151.0013  -47.9586 C   0  0  0  0  0  0  0  0  0  0  0  0
   68.2246  151.8288  -49.2064 C   0  0  0  0  0  0  0  0  0  0  0  0
   67.1855  152.8081  -49.2321 C   0  0  0  0  0  0  0  0  0  0  0  0
   66.7833  153.5636  -50.3428 C   0  0  0  0  0  0  0  0  0  0  0  0
   65.1736  154.1494  -48.9495 C   0  0  0  0  0  0  0  0  0  0  0  0
   63.3288  154.5620  -47.3332 C   0  0  0  0  0  0  0  0  0  0  0  0
   63.2550  153.3305  -46.6821 C   0  0  0  0  0  0  0  0  0  0  0  0
   62.4653  153.1879  -45.5510 C   0  0  0  0  0  0  0  0  0  0  0  0
   61.7321  154.2515  -45.0559 C   0  0  0  0  0  0  0  0  0  0  0  0
   61.7724  155.4642  -45.7258 C   0  0  0  0  0  0  0  0  0  0  0  0
   62.5570  155.6216  -46.8534 C   0  0  0  0  0  0  0  0  0  0  0  0
   68.9150  151.6011  -50.2034 O   0  0  0  0  0  0  0  0  0  0  0  0
   68.2209  151.2625  -44.3534 O   0  0  0  0  0  0  0  0  0  0  0  0
   66.0238  153.0219  -47.9556 S   0  0  0  0  0  0  0  0  0  0  0  0
   68.6999  148.6357  -44.9121 H   0  0  0  0  0  0  0  0  0  0  0  0
   67.0727  154.0847  -52.3114 H   0  0  0  0  0  0  0  0  0  0  0  0
   68.1695  152.8908  -51.6057 H   0  0  0  0  0  0  0  0  0  0  0  0
   68.1193  152.5601  -46.4799 H   0  0  0  0  0  0  0  0  0  0  0  0
   63.6583  155.4558  -49.1486 H   0  0  0  0  0  0  0  0  0  0  0  0
   68.8446  149.2713  -49.1305 H   0  0  0  0  0  0  0  0  0  0  0  0
   69.0098  147.7718  -47.1462 H   0  0  0  0  0  0  0  0  0  0  0  0
   67.8722  151.0358  -42.3842 H   0  0  0  0  0  0  0  0  0  0  0  0
   69.1205  149.9530  -43.0014 H   0  0  0  0  0  0  0  0  0  0  0  0
   67.4018  149.6343  -43.3539 H   0  0  0  0  0  0  0  0  0  0  0  0
   63.7747  152.4695  -47.0620 H   0  0  0  0  0  0  0  0  0  0  0  0
   62.3888  152.2258  -45.0721 H   0  0  0  0  0  0  0  0  0  0  0  0
   61.1212  154.1284  -44.1744 H   0  0  0  0  0  0  0  0  0  0  0  0
   61.1644  156.2927  -45.3934 H   0  0  0  0  0  0  0  0  0  0  0  0
   62.5436  156.5562  -47.3920 H   0  0  0  0  0  0  0  0  0  0  0  0
  1 13  1  0
  1 14  2  0
  2 13  1  0
  2 25  1  0
  2 26  1  0
  3 14  1  0
  3 15  1  0
  3 28  1  0
  4  5  2  0
  4  8  1  0
  4 24  1  0
  5  6  1  0
  5 22  1  0
  6 10  2  0
  6 27  1  0
  7  8  2  0
  7 10  1  0
  7 29  1  0
  8 30  1  0
  9 22  1  0
  9 31  1  0
  9 32  1  0
  9 33  1  0
 11 10  1  0
 11 12  1  0
 11 21  2  0
 12 13  2  0
 12 23  1  0
 14 23  1  0
 15 16  2  0
 15 20  1  0
 16 17  1  0
 16 34  1  0
 17 18  2  0
 17 35  1  0
 18 19  1  0
 18 36  1  0
 19 20  2  0
 19 37  1  0
 20 38  1  0
M  END
>  <lm5_entropy_jk>  (1) 
31.97375871552738

>  <number_of_rotatable_bonds>  (1) 
5

>  <IC50_NM>  (1) 
3100

>  <charge>  (1) 
0

$$$$
