3RMF
     RDKit          3D

 45 48  0  0  0  0  0  0  0  0999 V2000
   65.6448  154.2745  -50.5617 N   0  0  0  0  0  0  0  0  0  0  0  0
   64.0486  154.6940  -48.9344 N   0  0  0  0  0  0  0  0  0  0  0  0
   67.3953  153.5958  -51.9433 N   0  0  0  0  0  0  0  0  0  0  0  0
   61.3955  153.1963  -43.0433 N   0  0  0  0  0  0  0  0  0  0  0  0
   67.2672  152.8299  -49.6562 C   0  0  0  0  0  0  0  0  0  0  0  0
   66.8010  153.5614  -50.7574 C   0  0  0  0  0  0  0  0  0  0  0  0
   65.1763  154.0795  -49.3519 C   0  0  0  0  0  0  0  0  0  0  0  0
   63.3251  154.4973  -47.7546 C   0  0  0  0  0  0  0  0  0  0  0  0
   68.4481  152.0239  -49.6969 C   0  0  0  0  0  0  0  0  0  0  0  0
   68.8388  151.0422  -48.6273 C   0  0  0  0  0  0  0  0  0  0  0  0
   70.2033  150.6675  -48.6069 C   0  0  0  0  0  0  0  0  0  0  0  0
   70.6558  149.7434  -47.7167 C   0  0  0  0  0  0  0  0  0  0  0  0
   69.7866  149.1419  -46.7784 C   0  0  0  0  0  0  0  0  0  0  0  0
   68.4173  149.4893  -46.8029 C   0  0  0  0  0  0  0  0  0  0  0  0
   67.9657  150.4351  -47.7606 C   0  0  0  0  0  0  0  0  0  0  0  0
   62.5059  155.5464  -47.3368 C   0  0  0  0  0  0  0  0  0  0  0  0
   61.7219  155.4218  -46.2083 C   0  0  0  0  0  0  0  0  0  0  0  0
   61.7737  154.2430  -45.4839 C   0  0  0  0  0  0  0  0  0  0  0  0
   62.5591  153.1750  -45.9000 C   0  0  0  0  0  0  0  0  0  0  0  0
   63.3371  153.3000  -47.0341 C   0  0  0  0  0  0  0  0  0  0  0  0
   70.2432  148.2042  -45.8223 C   0  0  0  0  0  0  0  0  0  0  0  0
   69.3754  147.6666  -44.9201 C   0  0  0  0  0  0  0  0  0  0  0  0
   68.0057  147.9985  -44.9529 C   0  0  0  0  0  0  0  0  0  0  0  0
   67.5334  148.8819  -45.8786 C   0  0  0  0  0  0  0  0  0  0  0  0
   69.2137  152.1214  -50.6646 O   0  0  0  0  0  0  0  0  0  0  0  0
   59.5915  153.1196  -44.7739 O   0  0  0  0  0  0  0  0  0  0  0  0
   60.1582  155.2435  -43.6709 O   0  0  0  0  0  0  0  0  0  0  0  0
   66.1426  153.0468  -48.3402 S   0  0  0  0  0  0  0  0  0  0  0  0
   60.6079  153.9762  -44.2079 S   0  0  0  0  0  0  0  0  0  0  0  0
   63.6184  155.3481  -49.5935 H   0  0  0  0  0  0  0  0  0  0  0  0
   66.9905  154.0886  -52.7268 H   0  0  0  0  0  0  0  0  0  0  0  0
   68.2373  153.0485  -52.0267 H   0  0  0  0  0  0  0  0  0  0  0  0
   61.3562  152.1763  -43.1486 H   0  0  0  0  0  0  0  0  0  0  0  0
   61.2261  153.5717  -42.1265 H   0  0  0  0  0  0  0  0  0  0  0  0
   70.8672  151.1135  -49.3297 H   0  0  0  0  0  0  0  0  0  0  0  0
   71.6880  149.4296  -47.7469 H   0  0  0  0  0  0  0  0  0  0  0  0
   66.9068  150.6400  -47.7967 H   0  0  0  0  0  0  0  0  0  0  0  0
   62.4400  156.4267  -47.9511 H   0  0  0  0  0  0  0  0  0  0  0  0
   61.0474  156.2118  -45.9173 H   0  0  0  0  0  0  0  0  0  0  0  0
   62.5212  152.2383  -45.3630 H   0  0  0  0  0  0  0  0  0  0  0  0
   63.8890  152.4478  -47.3898 H   0  0  0  0  0  0  0  0  0  0  0  0
   71.2870  147.9182  -45.8408 H   0  0  0  0  0  0  0  0  0  0  0  0
   69.7224  146.9634  -44.1767 H   0  0  0  0  0  0  0  0  0  0  0  0
   67.3312  147.5294  -44.2521 H   0  0  0  0  0  0  0  0  0  0  0  0
   66.4788  149.1072  -45.9356 H   0  0  0  0  0  0  0  0  0  0  0  0
  1  7  2  0
  2  8  1  0
  2 30  1  0
  3  6  1  0
  3 31  1  0
  3 32  1  0
  4 33  1  0
  4 34  1  0
  5 28  1  0
  6  1  1  0
  6  5  2  0
  7  2  1  0
  7 28  1  0
  8 16  2  0
  8 20  1  0
  9  5  1  0
  9 10  1  0
 10 11  2  0
 10 15  1  0
 11 12  1  0
 11 35  1  0
 12 13  2  0
 12 36  1  0
 13 21  1  0
 14 13  1  0
 14 24  1  0
 15 14  2  0
 15 37  1  0
 16 17  1  0
 16 38  1  0
 17 18  2  0
 17 39  1  0
 18 29  1  0
 19 18  1  0
 19 40  1  0
 20 19  2  0
 20 41  1  0
 21 22  2  0
 21 42  1  0
 22 43  1  0
 23 22  1  0
 23 44  1  0
 24 23  2  0
 24 45  1  0
 25  9  2  0
 26 29  2  0
 29 27  2  0
 29  4  1  0
M  END
>  <lm5_entropy_jk>  (1) 
22.397995528352578

>  <number_of_rotatable_bonds>  (1) 
5

>  <IC50_NM>  (1) 
82000

>  <charge>  (1) 
0

$$$$
