3RMF
     RDKit          3D

 45 48  0  0  0  0  0  0  0  0999 V2000
   65.6458  154.2621  -50.5780 N   0  0  0  0  0  0  0  0  0  0  0  0
   64.0406  154.6641  -48.9587 N   0  0  0  0  0  0  0  0  0  0  0  0
   67.4046  153.5974  -51.9547 N   0  0  0  0  0  0  0  0  0  0  0  0
   61.3607  153.2396  -43.0504 N   0  0  0  0  0  0  0  0  0  0  0  0
   67.2576  152.8021  -49.6789 C   0  0  0  0  0  0  0  0  0  0  0  0
   66.8007  153.5484  -50.7743 C   0  0  0  0  0  0  0  0  0  0  0  0
   65.1715  154.0556  -49.3719 C   0  0  0  0  0  0  0  0  0  0  0  0
   63.3213  154.4833  -47.7743 C   0  0  0  0  0  0  0  0  0  0  0  0
   68.4286  151.9851  -49.7281 C   0  0  0  0  0  0  0  0  0  0  0  0
   68.8117  150.9945  -48.6651 C   0  0  0  0  0  0  0  0  0  0  0  0
   70.1725  150.6113  -48.6561 C   0  0  0  0  0  0  0  0  0  0  0  0
   70.6280  149.6904  -47.7650 C   0  0  0  0  0  0  0  0  0  0  0  0
   69.7652  149.1053  -46.8117 C   0  0  0  0  0  0  0  0  0  0  0  0
   68.3972  149.4584  -46.8265 C   0  0  0  0  0  0  0  0  0  0  0  0
   67.9407  150.3974  -47.7889 C   0  0  0  0  0  0  0  0  0  0  0  0
   62.5148  155.5459  -47.3661 C   0  0  0  0  0  0  0  0  0  0  0  0
   61.7363  155.4438  -46.2326 C   0  0  0  0  0  0  0  0  0  0  0  0
   61.7801  154.2744  -45.4934 C   0  0  0  0  0  0  0  0  0  0  0  0
   62.5500  153.1925  -45.9009 C   0  0  0  0  0  0  0  0  0  0  0  0
   63.3256  153.2944  -47.0393 C   0  0  0  0  0  0  0  0  0  0  0  0
   70.2281  148.1727  -45.8540 C   0  0  0  0  0  0  0  0  0  0  0  0
   69.3674  147.6404  -44.9421 C   0  0  0  0  0  0  0  0  0  0  0  0
   67.9985  147.9784  -44.9640 C   0  0  0  0  0  0  0  0  0  0  0  0
   67.5209  148.8604  -45.8887 C   0  0  0  0  0  0  0  0  0  0  0  0
   69.1957  152.0840  -50.6950 O   0  0  0  0  0  0  0  0  0  0  0  0
   59.5742  153.2026  -44.7974 O   0  0  0  0  0  0  0  0  0  0  0  0
   60.1794  155.3151  -43.6904 O   0  0  0  0  0  0  0  0  0  0  0  0
   66.1322  153.0150  -48.3623 S   0  0  0  0  0  0  0  0  0  0  0  0
   60.6016  154.0373  -44.2247 S   0  0  0  0  0  0  0  0  0  0  0  0
   63.6125  155.3185  -49.6196 H   0  0  0  0  0  0  0  0  0  0  0  0
   67.0036  154.0960  -52.7366 H   0  0  0  0  0  0  0  0  0  0  0  0
   68.2427  153.0440  -52.0404 H   0  0  0  0  0  0  0  0  0  0  0  0
   61.2533  152.2256  -43.1246 H   0  0  0  0  0  0  0  0  0  0  0  0
   61.2482  153.6515  -42.1411 H   0  0  0  0  0  0  0  0  0  0  0  0
   70.8292  151.0502  -49.3890 H   0  0  0  0  0  0  0  0  0  0  0  0
   71.6569  149.3676  -47.8063 H   0  0  0  0  0  0  0  0  0  0  0  0
   66.8819  150.6047  -47.8209 H   0  0  0  0  0  0  0  0  0  0  0  0
   62.4529  156.4185  -47.9920 H   0  0  0  0  0  0  0  0  0  0  0  0
   61.0696  156.2432  -45.9504 H   0  0  0  0  0  0  0  0  0  0  0  0
   62.4985  152.2611  -45.3566 H   0  0  0  0  0  0  0  0  0  0  0  0
   63.8687  152.4324  -47.3861 H   0  0  0  0  0  0  0  0  0  0  0  0
   71.2707  147.8821  -45.8851 H   0  0  0  0  0  0  0  0  0  0  0  0
   69.7174  146.9339  -44.2025 H   0  0  0  0  0  0  0  0  0  0  0  0
   67.3280  147.5134  -44.2563 H   0  0  0  0  0  0  0  0  0  0  0  0
   66.4665  149.0898  -45.9353 H   0  0  0  0  0  0  0  0  0  0  0  0
  1  7  2  0
  2  8  1  0
  2 30  1  0
  3  6  1  0
  3 31  1  0
  3 32  1  0
  4 33  1  0
  4 34  1  0
  5 28  1  0
  6  1  1  0
  6  5  2  0
  7  2  1  0
  7 28  1  0
  8 16  2  0
  8 20  1  0
  9  5  1  0
  9 10  1  0
 10 11  2  0
 10 15  1  0
 11 12  1  0
 11 35  1  0
 12 13  2  0
 12 36  1  0
 13 21  1  0
 14 13  1  0
 14 24  1  0
 15 14  2  0
 15 37  1  0
 16 17  1  0
 16 38  1  0
 17 18  2  0
 17 39  1  0
 18 29  1  0
 19 18  1  0
 19 40  1  0
 20 19  2  0
 20 41  1  0
 21 22  2  0
 21 42  1  0
 22 43  1  0
 23 22  1  0
 23 44  1  0
 24 23  2  0
 24 45  1  0
 25  9  2  0
 26 29  2  0
 29 27  2  0
 29  4  1  0
M  END
>  <lm5_entropy_jk>  (1) 
22.397995528352578

>  <number_of_rotatable_bonds>  (1) 
5

>  <IC50_NM>  (1) 
82000

>  <charge>  (1) 
0

$$$$
