3SQQ
     RDKit          3D

 42 44  0  0  0  0  0  0  0  0999 V2000
   65.9087  154.4380  -50.5151 N   0  0  0  0  0  0  0  0  0  0  0  0
   64.6026  154.9612  -48.6438 N   0  0  0  0  0  0  0  0  0  0  0  0
   67.4152  153.5986  -52.1258 N   0  0  0  0  0  0  0  0  0  0  0  0
   62.1302  152.8988  -42.8588 N   0  0  0  0  0  0  0  0  0  0  0  0
   67.4727  152.8043  -49.8630 C   0  0  0  0  0  0  0  0  0  0  0  0
   66.9421  153.6058  -50.8753 C   0  0  0  0  0  0  0  0  0  0  0  0
   65.6105  154.2524  -49.2518 C   0  0  0  0  0  0  0  0  0  0  0  0
   63.8819  154.6348  -47.4671 C   0  0  0  0  0  0  0  0  0  0  0  0
   68.3469  151.6842  -50.0645 C   0  0  0  0  0  0  0  0  0  0  0  0
   68.6190  150.7278  -48.9264 C   0  0  0  0  0  0  0  0  0  0  0  0
   69.9107  150.2387  -48.6897 C   0  0  0  0  0  0  0  0  0  0  0  0
   70.0998  149.3927  -47.5992 C   0  0  0  0  0  0  0  0  0  0  0  0
   69.0528  148.9891  -46.7878 C   0  0  0  0  0  0  0  0  0  0  0  0
   67.7669  149.4214  -47.0669 C   0  0  0  0  0  0  0  0  0  0  0  0
   67.5622  150.2791  -48.1323 C   0  0  0  0  0  0  0  0  0  0  0  0
   64.0274  153.4579  -46.7319 C   0  0  0  0  0  0  0  0  0  0  0  0
   63.2664  153.2415  -45.5918 C   0  0  0  0  0  0  0  0  0  0  0  0
   62.3331  154.1784  -45.1753 C   0  0  0  0  0  0  0  0  0  0  0  0
   62.1654  155.3435  -45.9083 C   0  0  0  0  0  0  0  0  0  0  0  0
   62.9341  155.5655  -47.0331 C   0  0  0  0  0  0  0  0  0  0  0  0
   71.0839  150.5968  -49.5634 C   0  0  0  0  0  0  0  0  0  0  0  0
   68.8656  151.4935  -51.1647 O   0  0  0  0  0  0  0  0  0  0  0  0
   60.8658  154.9900  -43.1092 O   0  0  0  0  0  0  0  0  0  0  0  0
   60.1357  153.0383  -44.4234 O   0  0  0  0  0  0  0  0  0  0  0  0
   66.6314  153.1688  -48.3872 S   0  0  0  0  0  0  0  0  0  0  0  0
   61.2108  153.8030  -43.8508 S   0  0  0  0  0  0  0  0  0  0  0  0
   64.0240  155.4632  -49.3172 H   0  0  0  0  0  0  0  0  0  0  0  0
   67.0011  154.1556  -52.8672 H   0  0  0  0  0  0  0  0  0  0  0  0
   68.1050  152.9015  -52.3524 H   0  0  0  0  0  0  0  0  0  0  0  0
   62.1202  151.9009  -43.1282 H   0  0  0  0  0  0  0  0  0  0  0  0
   61.9345  153.0630  -41.8887 H   0  0  0  0  0  0  0  0  0  0  0  0
   71.0874  149.0019  -47.4055 H   0  0  0  0  0  0  0  0  0  0  0  0
   69.2223  148.3029  -45.9682 H   0  0  0  0  0  0  0  0  0  0  0  0
   66.9258  149.0800  -46.4751 H   0  0  0  0  0  0  0  0  0  0  0  0
   66.5543  150.5804  -48.3608 H   0  0  0  0  0  0  0  0  0  0  0  0
   64.6958  152.6799  -47.0489 H   0  0  0  0  0  0  0  0  0  0  0  0
   63.4052  152.3199  -45.0416 H   0  0  0  0  0  0  0  0  0  0  0  0
   61.4215  156.0640  -45.6059 H   0  0  0  0  0  0  0  0  0  0  0  0
   62.7614  156.4514  -47.6241 H   0  0  0  0  0  0  0  0  0  0  0  0
   70.7914  150.5898  -50.6072 H   0  0  0  0  0  0  0  0  0  0  0  0
   71.8968  149.8937  -49.3993 H   0  0  0  0  0  0  0  0  0  0  0  0
   71.4312  151.6041  -49.3370 H   0  0  0  0  0  0  0  0  0  0  0  0
  1  7  2  0
  2  8  1  0
  2 27  1  0
  3  6  1  0
  3 28  1  0
  3 29  1  0
  4 30  1  0
  4 31  1  0
  5 25  1  0
  6  1  1  0
  6  5  2  0
  7  2  1  0
  7 25  1  0
  8 20  1  0
  8 16  2  0
  9  5  1  0
  9 10  1  0
 10 11  2  0
 10 15  1  0
 11 12  1  0
 12 13  2  0
 12 32  1  0
 13 33  1  0
 14 13  1  0
 14 34  1  0
 15 14  2  0
 15 35  1  0
 16 17  1  0
 16 36  1  0
 17 18  2  0
 17 37  1  0
 18 26  1  0
 19 18  1  0
 19 38  1  0
 20 19  2  0
 20 39  1  0
 21 11  1  0
 21 40  1  0
 21 41  1  0
 21 42  1  0
 22  9  2  0
 24 26  2  0
 26 23  2  0
 26  4  1  0
M  END
>  <lm5_entropy_jk>  (1) 
31.418959509749985

>  <number_of_rotatable_bonds>  (1) 
5

>  <IC50_NM>  (1) 
4800

>  <charge>  (1) 
0

$$$$
