3SQQ
     RDKit          3D

 42 44  0  0  0  0  0  0  0  0999 V2000
   65.8190  154.4877  -50.3541 N   0  0  0  0  0  0  0  0  0  0  0  0
   64.4975  154.9669  -48.4984 N   0  0  0  0  0  0  0  0  0  0  0  0
   67.2884  153.6672  -51.9799 N   0  0  0  0  0  0  0  0  0  0  0  0
   61.7817  152.8574  -42.8334 N   0  0  0  0  0  0  0  0  0  0  0  0
   67.3365  152.8021  -49.7420 C   0  0  0  0  0  0  0  0  0  0  0  0
   66.8385  153.6531  -50.7307 C   0  0  0  0  0  0  0  0  0  0  0  0
   65.4938  154.2742  -49.0936 C   0  0  0  0  0  0  0  0  0  0  0  0
   63.7764  154.6507  -47.3402 C   0  0  0  0  0  0  0  0  0  0  0  0
   68.2177  151.7038  -49.9813 C   0  0  0  0  0  0  0  0  0  0  0  0
   68.4702  150.7006  -48.8939 C   0  0  0  0  0  0  0  0  0  0  0  0
   69.7706  150.3022  -48.5762 C   0  0  0  0  0  0  0  0  0  0  0  0
   69.9344  149.3509  -47.5746 C   0  0  0  0  0  0  0  0  0  0  0  0
   68.8559  148.7681  -46.9339 C   0  0  0  0  0  0  0  0  0  0  0  0
   67.5663  149.1394  -47.2777 C   0  0  0  0  0  0  0  0  0  0  0  0
   67.3845  150.1081  -48.2492 C   0  0  0  0  0  0  0  0  0  0  0  0
   63.7964  153.3962  -46.7268 C   0  0  0  0  0  0  0  0  0  0  0  0
   63.0032  153.1552  -45.6237 C   0  0  0  0  0  0  0  0  0  0  0  0
   62.1956  154.1685  -45.1273 C   0  0  0  0  0  0  0  0  0  0  0  0
   62.1522  155.4146  -45.7306 C   0  0  0  0  0  0  0  0  0  0  0  0
   62.9467  155.6509  -46.8313 C   0  0  0  0  0  0  0  0  0  0  0  0
   70.9854  150.8609  -49.2701 C   0  0  0  0  0  0  0  0  0  0  0  0
   68.7445  151.5564  -51.0905 O   0  0  0  0  0  0  0  0  0  0  0  0
   60.6014  154.9973  -43.2011 O   0  0  0  0  0  0  0  0  0  0  0  0
   59.9621  153.0544  -44.5621 O   0  0  0  0  0  0  0  0  0  0  0  0
   66.4663  153.1010  -48.2650 S   0  0  0  0  0  0  0  0  0  0  0  0
   61.0157  153.7844  -43.8869 S   0  0  0  0  0  0  0  0  0  0  0  0
   64.0054  155.6082  -49.1144 H   0  0  0  0  0  0  0  0  0  0  0  0
   66.8873  154.2508  -52.6985 H   0  0  0  0  0  0  0  0  0  0  0  0
   67.9810  152.9627  -52.1805 H   0  0  0  0  0  0  0  0  0  0  0  0
   61.8923  151.8475  -43.1135 H   0  0  0  0  0  0  0  0  0  0  0  0
   61.5327  153.0522  -41.8767 H   0  0  0  0  0  0  0  0  0  0  0  0
   70.9381  149.0289  -47.3388 H   0  0  0  0  0  0  0  0  0  0  0  0
   69.0058  147.9919  -46.1979 H   0  0  0  0  0  0  0  0  0  0  0  0
   66.7137  148.6773  -46.8018 H   0  0  0  0  0  0  0  0  0  0  0  0
   66.3812  150.3890  -48.5233 H   0  0  0  0  0  0  0  0  0  0  0  0
   64.3709  152.5816  -47.1271 H   0  0  0  0  0  0  0  0  0  0  0  0
   63.0019  152.1750  -45.1616 H   0  0  0  0  0  0  0  0  0  0  0  0
   61.4904  156.1800  -45.3555 H   0  0  0  0  0  0  0  0  0  0  0  0
   62.8845  156.5950  -47.3429 H   0  0  0  0  0  0  0  0  0  0  0  0
   70.8252  150.9364  -50.3400 H   0  0  0  0  0  0  0  0  0  0  0  0
   71.8310  150.2047  -49.0849 H   0  0  0  0  0  0  0  0  0  0  0  0
   71.2156  151.8602  -48.9027 H   0  0  0  0  0  0  0  0  0  0  0  0
  1  7  2  0
  2  8  1  0
  2 27  1  0
  3  6  1  0
  3 28  1  0
  3 29  1  0
  4 30  1  0
  4 31  1  0
  5 25  1  0
  6  1  1  0
  6  5  2  0
  7  2  1  0
  7 25  1  0
  8 20  1  0
  8 16  2  0
  9  5  1  0
  9 10  1  0
 10 11  2  0
 10 15  1  0
 11 12  1  0
 12 13  2  0
 12 32  1  0
 13 33  1  0
 14 13  1  0
 14 34  1  0
 15 14  2  0
 15 35  1  0
 16 17  1  0
 16 36  1  0
 17 18  2  0
 17 37  1  0
 18 26  1  0
 19 18  1  0
 19 38  1  0
 20 19  2  0
 20 39  1  0
 21 11  1  0
 21 40  1  0
 21 41  1  0
 21 42  1  0
 22  9  2  0
 24 26  2  0
 26 23  2  0
 26  4  1  0
M  END
>  <lm5_entropy_jk>  (1) 
31.418959509749985

>  <number_of_rotatable_bonds>  (1) 
5

>  <IC50_NM>  (1) 
4800

>  <charge>  (1) 
0

$$$$
