3SQQ
     RDKit          3D

 42 44  0  0  0  0  0  0  0  0999 V2000
   65.8186  154.4891  -50.3535 N   0  0  0  0  0  0  0  0  0  0  0  0
   64.5001  154.9700  -48.4976 N   0  0  0  0  0  0  0  0  0  0  0  0
   67.2861  153.6680  -51.9797 N   0  0  0  0  0  0  0  0  0  0  0  0
   61.7856  152.8619  -42.8276 N   0  0  0  0  0  0  0  0  0  0  0  0
   67.3360  152.8027  -49.7413 C   0  0  0  0  0  0  0  0  0  0  0  0
   66.8375  153.6537  -50.7300 C   0  0  0  0  0  0  0  0  0  0  0  0
   65.4958  154.2767  -49.0922 C   0  0  0  0  0  0  0  0  0  0  0  0
   63.7809  154.6533  -47.3382 C   0  0  0  0  0  0  0  0  0  0  0  0
   68.2162  151.7044  -49.9812 C   0  0  0  0  0  0  0  0  0  0  0  0
   68.4680  150.7006  -48.8951 C   0  0  0  0  0  0  0  0  0  0  0  0
   69.7683  150.3038  -48.5765 C   0  0  0  0  0  0  0  0  0  0  0  0
   69.9310  149.3512  -47.5758 C   0  0  0  0  0  0  0  0  0  0  0  0
   68.8524  148.7673  -46.9360 C   0  0  0  0  0  0  0  0  0  0  0  0
   67.5626  149.1378  -47.2809 C   0  0  0  0  0  0  0  0  0  0  0  0
   67.3817  150.1068  -48.2525 C   0  0  0  0  0  0  0  0  0  0  0  0
   63.8014  153.3986  -46.7251 C   0  0  0  0  0  0  0  0  0  0  0  0
   63.0099  153.1579  -45.6206 C   0  0  0  0  0  0  0  0  0  0  0  0
   62.2044  154.1720  -45.1226 C   0  0  0  0  0  0  0  0  0  0  0  0
   62.1615  155.4185  -45.7257 C   0  0  0  0  0  0  0  0  0  0  0  0
   62.9536  155.6546  -46.8281 C   0  0  0  0  0  0  0  0  0  0  0  0
   70.9839  150.8675  -49.2646 C   0  0  0  0  0  0  0  0  0  0  0  0
   68.7423  151.5584  -51.0910 O   0  0  0  0  0  0  0  0  0  0  0  0
   60.6060  155.0018  -43.2026 O   0  0  0  0  0  0  0  0  0  0  0  0
   59.9702  153.0573  -44.5624 O   0  0  0  0  0  0  0  0  0  0  0  0
   66.4701  153.1044  -48.2630 S   0  0  0  0  0  0  0  0  0  0  0  0
   61.0224  153.7876  -43.8849 S   0  0  0  0  0  0  0  0  0  0  0  0
   64.0034  155.6045  -49.1177 H   0  0  0  0  0  0  0  0  0  0  0  0
   66.8870  154.2561  -52.6959 H   0  0  0  0  0  0  0  0  0  0  0  0
   67.9791  152.9643  -52.1824 H   0  0  0  0  0  0  0  0  0  0  0  0
   61.8951  151.8528  -43.1122 H   0  0  0  0  0  0  0  0  0  0  0  0
   61.5220  153.0494  -41.8729 H   0  0  0  0  0  0  0  0  0  0  0  0
   70.9342  149.0279  -47.3396 H   0  0  0  0  0  0  0  0  0  0  0  0
   69.0041  147.9921  -46.1987 H   0  0  0  0  0  0  0  0  0  0  0  0
   66.7104  148.6735  -46.8058 H   0  0  0  0  0  0  0  0  0  0  0  0
   66.3785  150.3874  -48.5269 H   0  0  0  0  0  0  0  0  0  0  0  0
   64.3782  152.5862  -47.1270 H   0  0  0  0  0  0  0  0  0  0  0  0
   63.0097  152.1775  -45.1592 H   0  0  0  0  0  0  0  0  0  0  0  0
   61.5029  156.1851  -45.3475 H   0  0  0  0  0  0  0  0  0  0  0  0
   62.8931  156.6004  -47.3374 H   0  0  0  0  0  0  0  0  0  0  0  0
   70.8280  150.9483  -50.3345 H   0  0  0  0  0  0  0  0  0  0  0  0
   71.8303  150.2128  -49.0793 H   0  0  0  0  0  0  0  0  0  0  0  0
   71.2114  151.8651  -48.8916 H   0  0  0  0  0  0  0  0  0  0  0  0
  1  7  2  0
  2  8  1  0
  2 27  1  0
  3  6  1  0
  3 28  1  0
  3 29  1  0
  4 30  1  0
  4 31  1  0
  5 25  1  0
  6  1  1  0
  6  5  2  0
  7  2  1  0
  7 25  1  0
  8 20  1  0
  8 16  2  0
  9  5  1  0
  9 10  1  0
 10 11  2  0
 10 15  1  0
 11 12  1  0
 12 13  2  0
 12 32  1  0
 13 33  1  0
 14 13  1  0
 14 34  1  0
 15 14  2  0
 15 35  1  0
 16 17  1  0
 16 36  1  0
 17 18  2  0
 17 37  1  0
 18 26  1  0
 19 18  1  0
 19 38  1  0
 20 19  2  0
 20 39  1  0
 21 11  1  0
 21 40  1  0
 21 41  1  0
 21 42  1  0
 22  9  2  0
 24 26  2  0
 26 23  2  0
 26  4  1  0
M  END
>  <lm5_entropy_jk>  (1) 
31.418959509749985

>  <number_of_rotatable_bonds>  (1) 
5

>  <IC50_NM>  (1) 
4800

>  <charge>  (1) 
0

$$$$
