3RK5
     RDKit          3D

 35 37  0  0  1  0  0  0  0  0999 V2000
   64.5616  154.8335  -49.0490 N   0  0  0  0  0  0  0  0  0  0  0  0
   66.0664  154.2293  -50.7052 N   0  0  0  0  0  0  0  0  0  0  0  0
   67.7869  153.4122  -52.0635 N   0  0  0  0  0  0  0  0  0  0  0  0
   70.6068  149.6365  -47.4630 N   0  0  0  0  0  0  0  0  0  0  0  0
   63.7570  154.6407  -47.9135 C   0  0  0  0  0  0  0  0  0  0  0  0
   65.5923  154.0863  -49.4881 C   0  0  0  0  0  0  0  0  0  0  0  0
   67.1572  153.4195  -50.8968 C   0  0  0  0  0  0  0  0  0  0  0  0
   67.5453  152.6481  -49.7950 C   0  0  0  0  0  0  0  0  0  0  0  0
   68.6684  151.7731  -49.8063 C   0  0  0  0  0  0  0  0  0  0  0  0
   68.9258  150.7921  -48.7005 C   0  0  0  0  0  0  0  0  0  0  0  0
   67.9312  150.0791  -48.0397 C   0  0  0  0  0  0  0  0  0  0  0  0
   68.2940  149.1384  -47.0946 C   0  0  0  0  0  0  0  0  0  0  0  0
   69.6442  148.9549  -46.8405 C   0  0  0  0  0  0  0  0  0  0  0  0
   70.2469  150.5203  -48.3932 C   0  0  0  0  0  0  0  0  0  0  0  0
   63.0480  155.7504  -47.4595 C   0  0  0  0  0  0  0  0  0  0  0  0
   62.1501  155.6286  -46.4239 C   0  0  0  0  0  0  0  0  0  0  0  0
   61.9317  154.3971  -45.8282 C   0  0  0  0  0  0  0  0  0  0  0  0
   62.6603  153.2985  -46.2552 C   0  0  0  0  0  0  0  0  0  0  0  0
   63.5769  153.4081  -47.2895 C   0  0  0  0  0  0  0  0  0  0  0  0
   60.7946  154.2624  -44.8425 C   0  0  0  0  0  0  0  0  0  0  0  0
   69.4833  151.7959  -50.7340 O   0  0  0  0  0  0  0  0  0  0  0  0
   60.3999  155.3432  -44.3088 O   0  0  0  0  0  0  0  0  0  0  0  0
   60.3157  153.1311  -44.6669 O   0  0  0  0  0  0  0  0  0  0  0  0
   66.4510  152.9621  -48.4744 S   0  0  0  0  0  0  0  0  0  0  0  0
   64.1966  155.5324  -49.6940 H   0  0  0  0  0  0  0  0  0  0  0  0
   67.4062  153.9173  -52.8504 H   0  0  0  0  0  0  0  0  0  0  0  0
   68.5750  152.7891  -52.1420 H   0  0  0  0  0  0  0  0  0  0  0  0
   66.8891  150.2247  -48.2858 H   0  0  0  0  0  0  0  0  0  0  0  0
   67.5474  148.5411  -46.5945 H   0  0  0  0  0  0  0  0  0  0  0  0
   69.9647  148.2157  -46.1183 H   0  0  0  0  0  0  0  0  0  0  0  0
   71.0285  151.0444  -48.9260 H   0  0  0  0  0  0  0  0  0  0  0  0
   63.1381  156.6790  -47.9884 H   0  0  0  0  0  0  0  0  0  0  0  0
   61.5471  156.4600  -46.0966 H   0  0  0  0  0  0  0  0  0  0  0  0
   62.4698  152.3393  -45.8014 H   0  0  0  0  0  0  0  0  0  0  0  0
   64.0744  152.5249  -47.6497 H   0  0  0  0  0  0  0  0  0  0  0  0
  1  5  1  0
  1  6  1  0
  1 25  1  0
  2  6  2  0
  2  7  1  0
  3  7  1  0
  3 26  1  0
  3 27  1  0
  4 13  2  0
  4 14  1  0
  5 15  2  0
  5 19  1  0
  6 24  1  0
  7  8  2  0
  8 24  1  0
  9  8  1  0
  9 10  1  0
  9 21  2  0
 10 11  1  0
 10 14  2  0
 11 12  2  0
 11 28  1  0
 12 13  1  0
 12 29  1  0
 13 30  1  0
 14 31  1  0
 15 16  1  0
 15 32  1  0
 16 17  2  0
 16 33  1  0
 17 18  1  0
 17 20  1  0
 18 19  2  0
 18 34  1  0
 19 35  1  0
 20 22  2  0
 20 23  1  0
M  CHG  1  23  -1
M  END
>  <lm5_entropy_jk>  (1) 
20.582349174783765

>  <number_of_rotatable_bonds>  (1) 
5

>  <IC50_NM>  (1) 
4000

>  <charge>  (1) 
-1

$$$$
