3RK5
     RDKit          3D

 35 37  0  0  1  0  0  0  0  0999 V2000
   64.5144  154.7931  -48.3861 N   0  0  0  0  0  0  0  0  0  0  0  0
   65.8228  154.3627  -50.2397 N   0  0  0  0  0  0  0  0  0  0  0  0
   67.3347  153.6536  -51.8634 N   0  0  0  0  0  0  0  0  0  0  0  0
   70.7386  149.7192  -47.7783 N   0  0  0  0  0  0  0  0  0  0  0  0
   63.7678  154.4828  -47.2435 C   0  0  0  0  0  0  0  0  0  0  0  0
   65.4905  154.1025  -48.9931 C   0  0  0  0  0  0  0  0  0  0  0  0
   66.8931  153.6031  -50.6130 C   0  0  0  0  0  0  0  0  0  0  0  0
   67.4278  152.7670  -49.6254 C   0  0  0  0  0  0  0  0  0  0  0  0
   68.5617  151.9382  -49.8321 C   0  0  0  0  0  0  0  0  0  0  0  0
   68.9503  150.8776  -48.8423 C   0  0  0  0  0  0  0  0  0  0  0  0
   68.0293  150.0245  -48.2486 C   0  0  0  0  0  0  0  0  0  0  0  0
   68.4805  149.0114  -47.4223 C   0  0  0  0  0  0  0  0  0  0  0  0
   69.8442  148.9058  -47.2131 C   0  0  0  0  0  0  0  0  0  0  0  0
   70.2967  150.6778  -48.5876 C   0  0  0  0  0  0  0  0  0  0  0  0
   62.9941  155.5303  -46.7431 C   0  0  0  0  0  0  0  0  0  0  0  0
   62.1472  155.3195  -45.6817 C   0  0  0  0  0  0  0  0  0  0  0  0
   62.0311  154.0554  -45.1303 C   0  0  0  0  0  0  0  0  0  0  0  0
   62.7959  153.0135  -45.6246 C   0  0  0  0  0  0  0  0  0  0  0  0
   63.6870  153.2168  -46.6638 C   0  0  0  0  0  0  0  0  0  0  0  0
   60.9690  153.7926  -44.1009 C   0  0  0  0  0  0  0  0  0  0  0  0
   69.2535  152.0460  -50.8476 O   0  0  0  0  0  0  0  0  0  0  0  0
   60.6848  154.7569  -43.3208 O   0  0  0  0  0  0  0  0  0  0  0  0
   60.4475  152.6701  -44.1056 O   0  0  0  0  0  0  0  0  0  0  0  0
   66.4577  152.9015  -48.1836 S   0  0  0  0  0  0  0  0  0  0  0  0
   64.0464  155.4606  -48.9943 H   0  0  0  0  0  0  0  0  0  0  0  0
   66.9393  154.2929  -52.5377 H   0  0  0  0  0  0  0  0  0  0  0  0
   68.1869  153.1477  -52.0446 H   0  0  0  0  0  0  0  0  0  0  0  0
   66.9737  150.1282  -48.4582 H   0  0  0  0  0  0  0  0  0  0  0  0
   67.7993  148.3128  -46.9659 H   0  0  0  0  0  0  0  0  0  0  0  0
   70.2420  148.1183  -46.5875 H   0  0  0  0  0  0  0  0  0  0  0  0
   71.0322  151.3102  -49.0696 H   0  0  0  0  0  0  0  0  0  0  0  0
   63.0194  156.4897  -47.2336 H   0  0  0  0  0  0  0  0  0  0  0  0
   61.5205  156.1150  -45.3093 H   0  0  0  0  0  0  0  0  0  0  0  0
   62.6602  152.0322  -45.1996 H   0  0  0  0  0  0  0  0  0  0  0  0
   64.2377  152.3804  -47.0565 H   0  0  0  0  0  0  0  0  0  0  0  0
  1  5  1  0
  1  6  1  0
  1 25  1  0
  2  6  2  0
  2  7  1  0
  3  7  1  0
  3 26  1  0
  3 27  1  0
  4 13  2  0
  4 14  1  0
  5 15  2  0
  5 19  1  0
  6 24  1  0
  7  8  2  0
  8 24  1  0
  9  8  1  0
  9 10  1  0
  9 21  2  0
 10 11  1  0
 10 14  2  0
 11 12  2  0
 11 28  1  0
 12 13  1  0
 12 29  1  0
 13 30  1  0
 14 31  1  0
 15 16  1  0
 15 32  1  0
 16 17  2  0
 16 33  1  0
 17 18  1  0
 17 20  1  0
 18 19  2  0
 18 34  1  0
 19 35  1  0
 20 22  2  0
 20 23  1  0
M  CHG  1  23  -1
M  END
>  <lm5_entropy_jk>  (1) 
20.582349174783765

>  <number_of_rotatable_bonds>  (1) 
5

>  <IC50_NM>  (1) 
4000

>  <charge>  (1) 
-1

$$$$
