3S1H
     RDKit          3D

 43 45  0  0  1  0  0  0  0  0999 V2000
   65.9941  154.3162  -50.4457 N   0  0  0  0  0  0  0  0  0  0  0  0
   67.5464  153.5066  -52.0271 N   0  0  0  0  0  0  0  0  0  0  0  0
   64.6230  154.8171  -48.6113 N   0  0  0  0  0  0  0  0  0  0  0  0
   62.1309  152.8413  -42.7972 N   0  0  0  0  0  0  0  0  0  0  0  0
   69.0454  149.4188  -46.2025 C   0  0  0  0  0  0  0  0  0  0  0  0
   70.1542  149.9296  -46.8799 C   0  0  0  0  0  0  0  0  0  0  0  0
   70.0038  150.6181  -48.0673 C   0  0  0  0  0  0  0  0  0  0  0  0
   67.6536  150.1971  -47.9913 C   0  0  0  0  0  0  0  0  0  0  0  0
   67.7874  149.5158  -46.7876 C   0  0  0  0  0  0  0  0  0  0  0  0
   68.1991  148.4225  -44.2082 C   0  0  0  0  0  0  0  0  0  0  0  0
   68.7365  150.8030  -48.6205 C   0  0  0  0  0  0  0  0  0  0  0  0
   68.5648  151.6903  -49.8305 C   0  0  0  0  0  0  0  0  0  0  0  0
   67.5706  152.7255  -49.7498 C   0  0  0  0  0  0  0  0  0  0  0  0
   67.0552  153.5071  -50.7797 C   0  0  0  0  0  0  0  0  0  0  0  0
   65.6564  154.1238  -49.1917 C   0  0  0  0  0  0  0  0  0  0  0  0
   63.9107  154.5172  -47.4251 C   0  0  0  0  0  0  0  0  0  0  0  0
   64.0536  153.3537  -46.6672 C   0  0  0  0  0  0  0  0  0  0  0  0
   63.2966  153.1640  -45.5186 C   0  0  0  0  0  0  0  0  0  0  0  0
   62.3683  154.1105  -45.1164 C   0  0  0  0  0  0  0  0  0  0  0  0
   62.2054  155.2651  -45.8684 C   0  0  0  0  0  0  0  0  0  0  0  0
   62.9728  155.4627  -46.9999 C   0  0  0  0  0  0  0  0  0  0  0  0
   60.1464  153.0175  -44.3800 O   0  0  0  0  0  0  0  0  0  0  0  0
   60.9016  154.9520  -43.0588 O   0  0  0  0  0  0  0  0  0  0  0  0
   69.2800  151.5540  -50.8218 O   0  0  0  0  0  0  0  0  0  0  0  0
   69.3027  148.8681  -44.9875 O   0  0  0  0  0  0  0  0  0  0  0  0
   66.6577  153.0455  -48.3063 S   0  0  0  0  0  0  0  0  0  0  0  0
   61.2329  153.7612  -43.7996 S   0  0  0  0  0  0  0  0  0  0  0  0
   71.1142  149.7815  -46.4147 H   0  0  0  0  0  0  0  0  0  0  0  0
   67.1396  154.0767  -52.7644 H   0  0  0  0  0  0  0  0  0  0  0  0
   68.3069  152.8870  -52.2459 H   0  0  0  0  0  0  0  0  0  0  0  0
   70.8599  151.0517  -48.5626 H   0  0  0  0  0  0  0  0  0  0  0  0
   64.0489  155.3173  -49.2892 H   0  0  0  0  0  0  0  0  0  0  0  0
   66.6717  150.2587  -48.4379 H   0  0  0  0  0  0  0  0  0  0  0  0
   62.1247  151.8471  -43.0832 H   0  0  0  0  0  0  0  0  0  0  0  0
   61.8992  152.9842  -41.8315 H   0  0  0  0  0  0  0  0  0  0  0  0
   66.9098  149.0835  -46.3267 H   0  0  0  0  0  0  0  0  0  0  0  0
   68.6201  148.0837  -43.2659 H   0  0  0  0  0  0  0  0  0  0  0  0
   67.6749  147.5967  -44.6897 H   0  0  0  0  0  0  0  0  0  0  0  0
   67.4928  149.2329  -44.0197 H   0  0  0  0  0  0  0  0  0  0  0  0
   64.7141  152.5622  -46.9710 H   0  0  0  0  0  0  0  0  0  0  0  0
   63.4364  152.2516  -44.9518 H   0  0  0  0  0  0  0  0  0  0  0  0
   61.4682  155.9975  -45.5760 H   0  0  0  0  0  0  0  0  0  0  0  0
   62.8065  156.3426  -47.6025 H   0  0  0  0  0  0  0  0  0  0  0  0
  1 14  1  0
  1 15  2  0
  2 14  1  0
  2 29  1  0
  2 30  1  0
  3 15  1  0
  3 16  1  0
  3 32  1  0
  4 27  1  0
  4 34  1  0
  4 35  1  0
  5  6  2  0
  5  9  1  0
  5 25  1  0
  6  7  1  0
  6 28  1  0
  7 11  2  0
  7 31  1  0
  8  9  2  0
  8 11  1  0
  8 33  1  0
  9 36  1  0
 10 25  1  0
 10 37  1  0
 10 38  1  0
 10 39  1  0
 12 11  1  0
 12 13  1  0
 12 24  2  0
 13 14  2  0
 13 26  1  0
 15 26  1  0
 16 17  2  0
 16 21  1  0
 17 18  1  0
 17 40  1  0
 18 19  2  0
 18 41  1  0
 19 20  1  0
 19 27  1  0
 20 21  2  0
 20 42  1  0
 21 43  1  0
 22 27  2  0
 23 27  2  0
M  END
>  <lm5_entropy_jk>  (1) 
33.50945403317048

>  <number_of_rotatable_bonds>  (1) 
6

>  <IC50_NM>  (1) 
17000

>  <charge>  (1) 
0

$$$$
