3QTZ
     RDKit          3D

 39 41  0  0  0  0  0  0  0  0999 V2000
   65.9787  154.2940  -50.3088 N   0  0  0  0  0  0  0  0  0  0  0  0
   64.5743  154.7308  -48.5052 N   0  0  0  0  0  0  0  0  0  0  0  0
   67.5284  153.4975  -51.8946 N   0  0  0  0  0  0  0  0  0  0  0  0
   61.7366  152.8509  -42.6908 N   0  0  0  0  0  0  0  0  0  0  0  0
   67.5510  152.6930  -49.6305 C   0  0  0  0  0  0  0  0  0  0  0  0
   67.0489  153.5021  -50.6470 C   0  0  0  0  0  0  0  0  0  0  0  0
   65.6085  154.0475  -49.0706 C   0  0  0  0  0  0  0  0  0  0  0  0
   63.7953  154.4307  -47.3773 C   0  0  0  0  0  0  0  0  0  0  0  0
   68.6087  151.7407  -49.7572 C   0  0  0  0  0  0  0  0  0  0  0  0
   68.7991  150.7403  -48.6495 C   0  0  0  0  0  0  0  0  0  0  0  0
   67.7353  149.9791  -48.1743 C   0  0  0  0  0  0  0  0  0  0  0  0
   67.9333  149.0702  -47.1470 C   0  0  0  0  0  0  0  0  0  0  0  0
   69.1885  148.9121  -46.5802 C   0  0  0  0  0  0  0  0  0  0  0  0
   70.2280  149.6715  -47.0772 C   0  0  0  0  0  0  0  0  0  0  0  0
   70.0664  150.5750  -48.1091 C   0  0  0  0  0  0  0  0  0  0  0  0
   62.8872  155.4095  -46.9581 C   0  0  0  0  0  0  0  0  0  0  0  0
   62.0713  155.1974  -45.8660 C   0  0  0  0  0  0  0  0  0  0  0  0
   62.1347  153.9944  -45.1755 C   0  0  0  0  0  0  0  0  0  0  0  0
   63.0229  153.0087  -45.5831 C   0  0  0  0  0  0  0  0  0  0  0  0
   63.8452  153.2235  -46.6771 C   0  0  0  0  0  0  0  0  0  0  0  0
   69.3599  151.7283  -50.7300 O   0  0  0  0  0  0  0  0  0  0  0  0
   59.9187  152.9542  -44.3226 O   0  0  0  0  0  0  0  0  0  0  0  0
   60.6931  155.0445  -43.2703 O   0  0  0  0  0  0  0  0  0  0  0  0
   66.5703  152.9018  -48.2075 S   0  0  0  0  0  0  0  0  0  0  0  0
   60.9998  153.7532  -43.8212 S   0  0  0  0  0  0  0  0  0  0  0  0
   71.4467  149.5298  -46.5243 F   0  0  0  0  0  0  0  0  0  0  0  0
   64.1568  155.4103  -49.1234 H   0  0  0  0  0  0  0  0  0  0  0  0
   67.2010  154.1432  -52.5917 H   0  0  0  0  0  0  0  0  0  0  0  0
   68.3611  152.9461  -52.0423 H   0  0  0  0  0  0  0  0  0  0  0  0
   61.8462  151.8491  -42.9930 H   0  0  0  0  0  0  0  0  0  0  0  0
   62.5878  153.2684  -42.3259 H   0  0  0  0  0  0  0  0  0  0  0  0
   66.7543  150.0680  -48.6141 H   0  0  0  0  0  0  0  0  0  0  0  0
   67.1078  148.4746  -46.7777 H   0  0  0  0  0  0  0  0  0  0  0  0
   69.3562  148.1900  -45.7909 H   0  0  0  0  0  0  0  0  0  0  0  0
   70.9008  151.1440  -48.4847 H   0  0  0  0  0  0  0  0  0  0  0  0
   62.7991  156.3324  -47.5095 H   0  0  0  0  0  0  0  0  0  0  0  0
   61.3785  155.9631  -45.5433 H   0  0  0  0  0  0  0  0  0  0  0  0
   63.0643  152.0658  -45.0502 H   0  0  0  0  0  0  0  0  0  0  0  0
   64.5035  152.4254  -46.9782 H   0  0  0  0  0  0  0  0  0  0  0  0
  1  7  2  0
  2  8  1  0
  2 27  1  0
  3  6  1  0
  3 28  1  0
  3 29  1  0
  4 30  1  0
  4 31  1  0
  5 24  1  0
  6  1  1  0
  6  5  2  0
  7  2  1  0
  7 24  1  0
  8 16  2  0
  8 20  1  0
  9  5  1  0
  9 10  1  0
 10 15  1  0
 10 11  2  0
 11 12  1  0
 11 32  1  0
 12 13  2  0
 12 33  1  0
 13 34  1  0
 14 26  1  0
 14 13  1  0
 15 14  2  0
 15 35  1  0
 16 17  1  0
 16 36  1  0
 17 18  2  0
 17 37  1  0
 18 25  1  0
 19 18  1  0
 19 38  1  0
 20 19  2  0
 20 39  1  0
 21  9  2  0
 22 25  2  0
 25 23  2  0
 25  4  1  0
M  END
>  <lm5_entropy_jk>  (1) 
22.397995528352578

>  <number_of_rotatable_bonds>  (1) 
5

>  <IC50_NM>  (1) 
50

>  <charge>  (1) 
0

$$$$
