3R8U
     RDKit          3D

 37 39  0  0  1  0  0  0  0  0999 V2000
   64.1986  155.3704  -48.9080 N   0  0  0  0  0  0  0  0  0  0  0  0
   65.7644  154.5840  -50.4322 N   0  0  0  0  0  0  0  0  0  0  0  0
   67.4179  153.5139  -51.6471 N   0  0  0  0  0  0  0  0  0  0  0  0
   62.6231  153.5864  -46.1133 C   0  0  0  0  0  0  0  0  0  0  0  0
   62.7400  154.1225  -47.3159 C   0  0  0  0  0  0  0  0  0  0  0  0
   63.5528  155.3517  -47.6082 C   0  0  0  0  0  0  0  0  0  0  0  0
   65.1887  154.5313  -49.2515 C   0  0  0  0  0  0  0  0  0  0  0  0
   67.0931  153.0202  -49.2943 C   0  0  0  0  0  0  0  0  0  0  0  0
   66.7947  153.6895  -50.4829 C   0  0  0  0  0  0  0  0  0  0  0  0
   68.1727  152.1080  -49.1253 C   0  0  0  0  0  0  0  0  0  0  0  0
   68.2488  151.2555  -47.8887 C   0  0  0  0  0  0  0  0  0  0  0  0
   68.1374  151.7437  -46.6140 C   0  0  0  0  0  0  0  0  0  0  0  0
   68.2666  150.8887  -45.4900 C   0  0  0  0  0  0  0  0  0  0  0  0
   68.4521  149.5053  -45.7064 C   0  0  0  0  0  0  0  0  0  0  0  0
   68.5346  149.0242  -47.0343 C   0  0  0  0  0  0  0  0  0  0  0  0
   68.4548  149.8710  -48.0951 C   0  0  0  0  0  0  0  0  0  0  0  0
   68.2175  151.3713  -44.1566 C   0  0  0  0  0  0  0  0  0  0  0  0
   68.3206  150.5134  -43.1007 C   0  0  0  0  0  0  0  0  0  0  0  0
   68.4725  149.1255  -43.3203 C   0  0  0  0  0  0  0  0  0  0  0  0
   68.5425  148.6356  -44.5903 C   0  0  0  0  0  0  0  0  0  0  0  0
   69.0382  151.9742  -49.9969 O   0  0  0  0  0  0  0  0  0  0  0  0
   65.8134  153.3554  -48.1450 S   0  0  0  0  0  0  0  0  0  0  0  0
   62.9177  156.2344  -47.5699 H   0  0  0  0  0  0  0  0  0  0  0  0
   64.3115  155.4721  -46.8389 H   0  0  0  0  0  0  0  0  0  0  0  0
   63.7094  155.8201  -49.6634 H   0  0  0  0  0  0  0  0  0  0  0  0
   67.1149  154.0375  -52.4508 H   0  0  0  0  0  0  0  0  0  0  0  0
   68.2233  152.9137  -51.6541 H   0  0  0  0  0  0  0  0  0  0  0  0
   67.9636  152.7937  -46.4275 H   0  0  0  0  0  0  0  0  0  0  0  0
   68.6542  147.9615  -47.1875 H   0  0  0  0  0  0  0  0  0  0  0  0
   68.5228  149.4942  -49.1027 H   0  0  0  0  0  0  0  0  0  0  0  0
   68.0910  152.4285  -43.9813 H   0  0  0  0  0  0  0  0  0  0  0  0
   68.2734  150.8790  -42.0840 H   0  0  0  0  0  0  0  0  0  0  0  0
   68.5266  148.4587  -42.4690 H   0  0  0  0  0  0  0  0  0  0  0  0
   68.6495  147.5737  -44.7692 H   0  0  0  0  0  0  0  0  0  0  0  0
   62.0114  152.7152  -45.9358 H   0  0  0  0  0  0  0  0  0  0  0  0
   63.1227  153.9851  -45.2400 H   0  0  0  0  0  0  0  0  0  0  0  0
   62.2191  153.6820  -48.1565 H   0  0  0  0  0  0  0  0  0  0  0  0
  1  6  1  0
  1  7  1  0
  1 25  1  0
  2  7  2  0
  2  9  1  0
  3  9  1  0
  3 26  1  0
  3 27  1  0
  4  5  2  0
  4 35  1  0
  4 36  1  0
  5  6  1  0
  5 37  1  0
  6 23  1  0
  6 24  1  0
  7 22  1  0
  8  9  2  0
  8 22  1  0
 10  8  1  0
 10 11  1  0
 10 21  2  0
 11 12  2  0
 11 16  1  0
 12 13  1  0
 12 28  1  0
 13 14  2  0
 13 17  1  0
 14 15  1  0
 14 20  1  0
 15 16  2  0
 15 29  1  0
 16 30  1  0
 17 18  2  0
 17 31  1  0
 18 19  1  0
 18 32  1  0
 19 20  2  0
 19 33  1  0
 20 34  1  0
M  END
>  <lm5_entropy_jk>  (1) 
31.97375871552738

>  <number_of_rotatable_bonds>  (1) 
5

>  <IC50_NM>  (1) 
5000

>  <charge>  (1) 
0

$$$$
