3RAK
     RDKit          3D

 39 41  0  0  1  0  0  0  0  0999 V2000
   65.9772  154.3065  -50.3214 N   0  0  0  0  0  0  0  0  0  0  0  0
   67.5181  153.5088  -51.9139 N   0  0  0  0  0  0  0  0  0  0  0  0
   64.5859  154.7512  -48.5009 N   0  0  0  0  0  0  0  0  0  0  0  0
   61.7231  152.8306  -42.6913 N   0  0  0  0  0  0  0  0  0  0  0  0
   69.1432  148.8775  -46.6389 C   0  0  0  0  0  0  0  0  0  0  0  0
   70.2348  149.5543  -47.1604 C   0  0  0  0  0  0  0  0  0  0  0  0
   70.0603  150.4785  -48.1802 C   0  0  0  0  0  0  0  0  0  0  0  0
   67.6999  150.0268  -48.1688 C   0  0  0  0  0  0  0  0  0  0  0  0
   67.8758  149.1074  -47.1496 C   0  0  0  0  0  0  0  0  0  0  0  0
   68.7880  150.7359  -48.6751 C   0  0  0  0  0  0  0  0  0  0  0  0
   68.6096  151.7426  -49.7810 C   0  0  0  0  0  0  0  0  0  0  0  0
   67.5552  152.7046  -49.6477 C   0  0  0  0  0  0  0  0  0  0  0  0
   67.0449  153.5100  -50.6634 C   0  0  0  0  0  0  0  0  0  0  0  0
   65.6133  154.0644  -49.0803 C   0  0  0  0  0  0  0  0  0  0  0  0
   63.8089  154.4505  -47.3693 C   0  0  0  0  0  0  0  0  0  0  0  0
   63.8710  153.2460  -46.6668 C   0  0  0  0  0  0  0  0  0  0  0  0
   63.0572  153.0193  -45.5693 C   0  0  0  0  0  0  0  0  0  0  0  0
   62.1628  153.9994  -45.1566 C   0  0  0  0  0  0  0  0  0  0  0  0
   62.0884  155.2022  -45.8460 C   0  0  0  0  0  0  0  0  0  0  0  0
   62.8995  155.4230  -46.9397 C   0  0  0  0  0  0  0  0  0  0  0  0
   59.9291  152.9593  -44.3340 O   0  0  0  0  0  0  0  0  0  0  0  0
   60.6980  155.0292  -43.2383 O   0  0  0  0  0  0  0  0  0  0  0  0
   69.3574  151.7404  -50.7582 O   0  0  0  0  0  0  0  0  0  0  0  0
   66.5790  152.9245  -48.2233 S   0  0  0  0  0  0  0  0  0  0  0  0
   61.0081  153.7499  -43.8149 S   0  0  0  0  0  0  0  0  0  0  0  0
   69.2743  148.1412  -45.8582 H   0  0  0  0  0  0  0  0  0  0  0  0
   71.2189  149.3256  -46.7837 H   0  0  0  0  0  0  0  0  0  0  0  0
   67.1854  154.1491  -52.6143 H   0  0  0  0  0  0  0  0  0  0  0  0
   68.3492  152.9569  -52.0686 H   0  0  0  0  0  0  0  0  0  0  0  0
   70.9026  150.9979  -48.6096 H   0  0  0  0  0  0  0  0  0  0  0  0
   64.1713  155.4322  -49.1181 H   0  0  0  0  0  0  0  0  0  0  0  0
   66.7152  150.1618  -48.5892 H   0  0  0  0  0  0  0  0  0  0  0  0
   61.8399  151.8307  -42.9973 H   0  0  0  0  0  0  0  0  0  0  0  0
   62.5528  153.2496  -42.2892 H   0  0  0  0  0  0  0  0  0  0  0  0
   67.0277  148.5596  -46.7618 H   0  0  0  0  0  0  0  0  0  0  0  0
   64.5282  152.4520  -46.9756 H   0  0  0  0  0  0  0  0  0  0  0  0
   63.1095  152.0666  -45.0546 H   0  0  0  0  0  0  0  0  0  0  0  0
   61.3838  155.9592  -45.5282 H   0  0  0  0  0  0  0  0  0  0  0  0
   62.7993  156.3439  -47.4893 H   0  0  0  0  0  0  0  0  0  0  0  0
  1 13  1  0
  1 14  2  0
  2 13  1  0
  2 28  1  0
  2 29  1  0
  3 14  1  0
  3 15  1  0
  3 31  1  0
  4 25  1  0
  4 33  1  0
  4 34  1  0
  5  6  2  0
  5  9  1  0
  5 26  1  0
  6  7  1  0
  6 27  1  0
  7 10  2  0
  7 30  1  0
  8  9  2  0
  8 10  1  0
  8 32  1  0
  9 35  1  0
 11 10  1  0
 11 12  1  0
 11 23  2  0
 12 13  2  0
 12 24  1  0
 14 24  1  0
 15 16  2  0
 15 20  1  0
 16 17  1  0
 16 36  1  0
 17 18  2  0
 17 37  1  0
 18 19  1  0
 18 25  1  0
 19 20  2  0
 19 38  1  0
 20 39  1  0
 21 25  2  0
 22 25  2  0
M  END
>  <lm5_entropy_jk>  (1) 
22.952794734129974

>  <number_of_rotatable_bonds>  (1) 
5

>  <IC50_NM>  (1) 
130

>  <charge>  (1) 
0

$$$$
