3QTU
     RDKit          3D

 44 46  0  0  0  0  0  0  0  0999 V2000
   65.8590  154.4771  -50.5369 N   0  0  0  0  0  0  0  0  0  0  0  0
   64.6218  154.9463  -48.6163 N   0  0  0  0  0  0  0  0  0  0  0  0
   67.3072  153.6752  -52.2091 N   0  0  0  0  0  0  0  0  0  0  0  0
   62.3109  152.7419  -42.8784 N   0  0  0  0  0  0  0  0  0  0  0  0
   70.2937  147.2019  -45.4549 N   0  0  0  0  0  0  0  0  0  0  0  0
   67.4762  152.8701  -49.9612 C   0  0  0  0  0  0  0  0  0  0  0  0
   66.8851  153.6634  -50.9439 C   0  0  0  0  0  0  0  0  0  0  0  0
   65.6103  154.2626  -49.2668 C   0  0  0  0  0  0  0  0  0  0  0  0
   63.9424  154.6026  -47.4280 C   0  0  0  0  0  0  0  0  0  0  0  0
   68.4391  151.8415  -50.1913 C   0  0  0  0  0  0  0  0  0  0  0  0
   68.8293  150.9677  -49.0277 C   0  0  0  0  0  0  0  0  0  0  0  0
   63.0441  155.5492  -46.9321 C   0  0  0  0  0  0  0  0  0  0  0  0
   62.2959  155.2944  -45.8020 C   0  0  0  0  0  0  0  0  0  0  0  0
   62.4505  154.0838  -45.1457 C   0  0  0  0  0  0  0  0  0  0  0  0
   63.3403  153.1368  -45.6229 C   0  0  0  0  0  0  0  0  0  0  0  0
   64.0791  153.3865  -46.7647 C   0  0  0  0  0  0  0  0  0  0  0  0
   70.1824  150.8608  -48.7533 C   0  0  0  0  0  0  0  0  0  0  0  0
   70.6060  150.1493  -47.6479 C   0  0  0  0  0  0  0  0  0  0  0  0
   69.6726  149.5408  -46.8330 C   0  0  0  0  0  0  0  0  0  0  0  0
   68.3181  149.5626  -47.1357 C   0  0  0  0  0  0  0  0  0  0  0  0
   67.9026  150.2854  -48.2394 C   0  0  0  0  0  0  0  0  0  0  0  0
   68.9929  151.6798  -51.2771 O   0  0  0  0  0  0  0  0  0  0  0  0
   60.2558  152.9526  -44.3779 O   0  0  0  0  0  0  0  0  0  0  0  0
   61.0433  154.8490  -43.0335 O   0  0  0  0  0  0  0  0  0  0  0  0
   71.5921  149.2551  -45.1081 O   0  0  0  0  0  0  0  0  0  0  0  0
   69.2397  149.1385  -44.3234 O   0  0  0  0  0  0  0  0  0  0  0  0
   66.6754  153.1773  -48.4479 S   0  0  0  0  0  0  0  0  0  0  0  0
   61.3584  153.6825  -43.8140 S   0  0  0  0  0  0  0  0  0  0  0  0
   70.2265  148.8297  -45.3048 S   0  0  0  0  0  0  0  0  0  0  0  0
   64.0115  155.4381  -49.2678 H   0  0  0  0  0  0  0  0  0  0  0  0
   66.8740  154.2225  -52.9465 H   0  0  0  0  0  0  0  0  0  0  0  0
   67.9980  152.9989  -52.4769 H   0  0  0  0  0  0  0  0  0  0  0  0
   62.2666  151.7496  -43.1595 H   0  0  0  0  0  0  0  0  0  0  0  0
   62.1422  152.8516  -41.8971 H   0  0  0  0  0  0  0  0  0  0  0  0
   71.0225  146.9572  -46.1276 H   0  0  0  0  0  0  0  0  0  0  0  0
   69.4049  146.8014  -45.7784 H   0  0  0  0  0  0  0  0  0  0  0  0
   62.8956  156.4632  -47.4848 H   0  0  0  0  0  0  0  0  0  0  0  0
   61.5920  156.0254  -45.4360 H   0  0  0  0  0  0  0  0  0  0  0  0
   63.4578  152.1875  -45.1170 H   0  0  0  0  0  0  0  0  0  0  0  0
   64.7122  152.6035  -47.1385 H   0  0  0  0  0  0  0  0  0  0  0  0
   70.8885  151.3498  -49.4023 H   0  0  0  0  0  0  0  0  0  0  0  0
   71.6416  150.0744  -47.3807 H   0  0  0  0  0  0  0  0  0  0  0  0
   67.5997  149.0634  -46.4962 H   0  0  0  0  0  0  0  0  0  0  0  0
   66.8509  150.3063  -48.4789 H   0  0  0  0  0  0  0  0  0  0  0  0
  1  8  2  0
  2  9  1  0
  2 30  1  0
  3  7  1  0
  3 31  1  0
  3 32  1  0
  4 33  1  0
  4 34  1  0
  5 29  1  0
  5 35  1  0
  5 36  1  0
  6 27  1  0
  7  1  1  0
  7  6  2  0
  8  2  1  0
  8 27  1  0
  9 12  2  0
  9 16  1  0
 10  6  1  0
 10 11  1  0
 11 17  2  0
 11 21  1  0
 12 13  1  0
 12 37  1  0
 13 14  2  0
 13 38  1  0
 14 28  1  0
 15 14  1  0
 15 39  1  0
 16 15  2  0
 16 40  1  0
 17 18  1  0
 17 41  1  0
 18 19  2  0
 18 42  1  0
 19 29  1  0
 20 19  1  0
 20 43  1  0
 21 20  2  0
 21 44  1  0
 22 10  2  0
 23 28  2  0
 28 24  2  0
 28  4  1  0
 29 25  2  0
 29 26  2  0
M  END
>  <lm5_entropy_jk>  (1) 
23.933690845995674

>  <number_of_rotatable_bonds>  (1) 
6

>  <IC50_NM>  (1) 
70

>  <charge>  (1) 
0

$$$$
