3RMF
     RDKit          3D

 45 48  0  0  0  0  0  0  0  0999 V2000
   65.8539  154.4249  -50.4996 N   0  0  0  0  0  0  0  0  0  0  0  0
   64.4867  154.9833  -48.6966 N   0  0  0  0  0  0  0  0  0  0  0  0
   67.3273  153.4515  -52.0400 N   0  0  0  0  0  0  0  0  0  0  0  0
   61.7750  152.8979  -42.8458 N   0  0  0  0  0  0  0  0  0  0  0  0
   67.4960  152.9194  -49.7079 C   0  0  0  0  0  0  0  0  0  0  0  0
   66.9217  153.6040  -50.7872 C   0  0  0  0  0  0  0  0  0  0  0  0
   65.5454  154.3198  -49.2271 C   0  0  0  0  0  0  0  0  0  0  0  0
   63.7586  154.6734  -47.5280 C   0  0  0  0  0  0  0  0  0  0  0  0
   68.4394  151.8450  -49.8343 C   0  0  0  0  0  0  0  0  0  0  0  0
   68.7040  150.9351  -48.6655 C   0  0  0  0  0  0  0  0  0  0  0  0
   69.9738  150.3142  -48.5579 C   0  0  0  0  0  0  0  0  0  0  0  0
   70.2761  149.5342  -47.4821 C   0  0  0  0  0  0  0  0  0  0  0  0
   69.3478  149.3451  -46.4268 C   0  0  0  0  0  0  0  0  0  0  0  0
   68.0596  149.8981  -46.5666 C   0  0  0  0  0  0  0  0  0  0  0  0
   67.7572  150.6496  -47.7221 C   0  0  0  0  0  0  0  0  0  0  0  0
   62.8662  155.6348  -47.0540 C   0  0  0  0  0  0  0  0  0  0  0  0
   62.0885  155.3978  -45.9379 C   0  0  0  0  0  0  0  0  0  0  0  0
   62.1894  154.1899  -45.2593 C   0  0  0  0  0  0  0  0  0  0  0  0
   63.0660  153.2202  -45.7216 C   0  0  0  0  0  0  0  0  0  0  0  0
   63.8366  153.4561  -46.8527 C   0  0  0  0  0  0  0  0  0  0  0  0
   69.6551  148.6268  -45.2448 C   0  0  0  0  0  0  0  0  0  0  0  0
   68.7388  148.5214  -44.2383 C   0  0  0  0  0  0  0  0  0  0  0  0
   67.4524  149.0862  -44.3803 C   0  0  0  0  0  0  0  0  0  0  0  0
   67.1113  149.7354  -45.5284 C   0  0  0  0  0  0  0  0  0  0  0  0
   69.0491  151.6582  -50.8914 O   0  0  0  0  0  0  0  0  0  0  0  0
   60.0106  153.0135  -44.5148 O   0  0  0  0  0  0  0  0  0  0  0  0
   60.6794  155.0692  -43.3047 O   0  0  0  0  0  0  0  0  0  0  0  0
   66.6109  153.3506  -48.2790 S   0  0  0  0  0  0  0  0  0  0  0  0
   61.0412  153.8270  -43.9293 S   0  0  0  0  0  0  0  0  0  0  0  0
   63.9740  155.5352  -49.3743 H   0  0  0  0  0  0  0  0  0  0  0  0
   66.9061  153.9751  -52.7864 H   0  0  0  0  0  0  0  0  0  0  0  0
   68.1068  152.8226  -52.1759 H   0  0  0  0  0  0  0  0  0  0  0  0
   61.9574  151.9185  -43.1658 H   0  0  0  0  0  0  0  0  0  0  0  0
   62.5521  153.3446  -42.3728 H   0  0  0  0  0  0  0  0  0  0  0  0
   70.6737  150.4498  -49.3658 H   0  0  0  0  0  0  0  0  0  0  0  0
   71.2235  149.0224  -47.4177 H   0  0  0  0  0  0  0  0  0  0  0  0
   66.7422  150.9853  -47.8345 H   0  0  0  0  0  0  0  0  0  0  0  0
   62.7469  156.5597  -47.5930 H   0  0  0  0  0  0  0  0  0  0  0  0
   61.3797  156.1420  -45.6095 H   0  0  0  0  0  0  0  0  0  0  0  0
   63.1185  152.2566  -45.2302 H   0  0  0  0  0  0  0  0  0  0  0  0
   64.4717  152.6677  -47.2185 H   0  0  0  0  0  0  0  0  0  0  0  0
   70.6193  148.1488  -45.1572 H   0  0  0  0  0  0  0  0  0  0  0  0
   68.9823  147.9824  -43.3331 H   0  0  0  0  0  0  0  0  0  0  0  0
   66.7390  148.9864  -43.5776 H   0  0  0  0  0  0  0  0  0  0  0  0
   66.1138  150.1337  -45.6514 H   0  0  0  0  0  0  0  0  0  0  0  0
  1  7  2  0
  2  8  1  0
  2 30  1  0
  3  6  1  0
  3 31  1  0
  3 32  1  0
  4 33  1  0
  4 34  1  0
  5 28  1  0
  6  1  1  0
  6  5  2  0
  7  2  1  0
  7 28  1  0
  8 16  2  0
  8 20  1  0
  9  5  1  0
  9 10  1  0
 10 11  2  0
 10 15  1  0
 11 12  1  0
 11 35  1  0
 12 13  2  0
 12 36  1  0
 13 21  1  0
 14 13  1  0
 14 24  1  0
 15 14  2  0
 15 37  1  0
 16 17  1  0
 16 38  1  0
 17 18  2  0
 17 39  1  0
 18 29  1  0
 19 18  1  0
 19 40  1  0
 20 19  2  0
 20 41  1  0
 21 22  2  0
 21 42  1  0
 22 43  1  0
 23 22  1  0
 23 44  1  0
 24 23  2  0
 24 45  1  0
 25  9  2  0
 26 29  2  0
 29 27  2  0
 29  4  1  0
M  END
>  <lm5_entropy_jk>  (1) 
22.397995528352578

>  <number_of_rotatable_bonds>  (1) 
5

>  <IC50_NM>  (1) 
82000

>  <charge>  (1) 
0

$$$$
