3R9N
     RDKit          3D

 42 44  0  0  1  0  0  0  0  0999 V2000
   68.2922  150.7628  -44.2931 N   0  0  0  0  0  0  0  0  0  0  0  0
   65.5384  154.5995  -49.9844 N   0  0  0  0  0  0  0  0  0  0  0  0
   64.1348  155.2472  -48.2047 N   0  0  0  0  0  0  0  0  0  0  0  0
   67.0927  153.6053  -51.4155 N   0  0  0  0  0  0  0  0  0  0  0  0
   68.2880  148.9626  -45.9686 C   0  0  0  0  0  0  0  0  0  0  0  0
   68.1695  150.3103  -45.6898 C   0  0  0  0  0  0  0  0  0  0  0  0
   67.9844  151.2677  -46.6769 C   0  0  0  0  0  0  0  0  0  0  0  0
   67.9835  150.8634  -48.0036 C   0  0  0  0  0  0  0  0  0  0  0  0
   68.1611  149.5156  -48.2966 C   0  0  0  0  0  0  0  0  0  0  0  0
   68.2816  148.5698  -47.2957 C   0  0  0  0  0  0  0  0  0  0  0  0
   67.8151  151.7988  -49.1805 C   0  0  0  0  0  0  0  0  0  0  0  0
   66.8918  152.8813  -49.1168 C   0  0  0  0  0  0  0  0  0  0  0  0
   66.5379  153.6956  -50.2060 C   0  0  0  0  0  0  0  0  0  0  0  0
   65.0711  154.4729  -48.7499 C   0  0  0  0  0  0  0  0  0  0  0  0
   63.5601  155.0081  -46.8841 C   0  0  0  0  0  0  0  0  0  0  0  0
   62.5332  153.8730  -46.8599 C   0  0  0  0  0  0  0  0  0  0  0  0
   62.0081  153.6638  -45.4420 C   0  0  0  0  0  0  0  0  0  0  0  0
   61.3864  154.9444  -44.8967 C   0  0  0  0  0  0  0  0  0  0  0  0
   62.3959  156.0894  -44.9421 C   0  0  0  0  0  0  0  0  0  0  0  0
   62.9183  156.2901  -46.3614 C   0  0  0  0  0  0  0  0  0  0  0  0
   68.0566  151.9327  -44.0599 O   0  0  0  0  0  0  0  0  0  0  0  0
   68.6517  149.9611  -43.4553 O   0  0  0  0  0  0  0  0  0  0  0  0
   68.4564  151.5536  -50.2068 O   0  0  0  0  0  0  0  0  0  0  0  0
   65.8044  153.2155  -47.7984 S   0  0  0  0  0  0  0  0  0  0  0  0
   68.3956  148.2383  -45.1778 H   0  0  0  0  0  0  0  0  0  0  0  0
   67.9021  152.2998  -46.3886 H   0  0  0  0  0  0  0  0  0  0  0  0
   63.5614  155.7733  -48.8560 H   0  0  0  0  0  0  0  0  0  0  0  0
   66.8313  154.2251  -52.1658 H   0  0  0  0  0  0  0  0  0  0  0  0
   67.8288  152.9259  -51.5103 H   0  0  0  0  0  0  0  0  0  0  0  0
   68.2040  149.2275  -49.3292 H   0  0  0  0  0  0  0  0  0  0  0  0
   68.3909  147.5240  -47.5315 H   0  0  0  0  0  0  0  0  0  0  0  0
   64.3775  154.7456  -46.2132 H   0  0  0  0  0  0  0  0  0  0  0  0
   62.9714  152.9568  -47.2505 H   0  0  0  0  0  0  0  0  0  0  0  0
   61.7154  154.1491  -47.5299 H   0  0  0  0  0  0  0  0  0  0  0  0
   62.8364  153.3659  -44.7940 H   0  0  0  0  0  0  0  0  0  0  0  0
   61.2937  152.8468  -45.4070 H   0  0  0  0  0  0  0  0  0  0  0  0
   61.0263  154.7833  -43.8810 H   0  0  0  0  0  0  0  0  0  0  0  0
   60.5237  155.2175  -45.5093 H   0  0  0  0  0  0  0  0  0  0  0  0
   61.9418  157.0132  -44.5850 H   0  0  0  0  0  0  0  0  0  0  0  0
   63.2341  155.8669  -44.2771 H   0  0  0  0  0  0  0  0  0  0  0  0
   62.0905  156.5598  -47.0218 H   0  0  0  0  0  0  0  0  0  0  0  0
   63.6438  157.1020  -46.3926 H   0  0  0  0  0  0  0  0  0  0  0  0
  1  6  1  0
  1 21  1  0
  1 22  2  0
  2 13  1  0
  2 14  2  0
  3 14  1  0
  3 15  1  0
  3 27  1  0
  4 13  1  0
  4 28  1  0
  4 29  1  0
  5  6  2  0
  5 10  1  0
  5 25  1  0
  6  7  1  0
  7  8  2  0
  7 26  1  0
  8  9  1  0
  9 10  2  0
  9 30  1  0
 10 31  1  0
 11  8  1  0
 11 12  1  0
 11 23  2  0
 12 13  2  0
 12 24  1  0
 14 24  1  0
 15 16  1  0
 15 20  1  0
 15 32  1  0
 16 17  1  0
 16 33  1  0
 16 34  1  0
 17 18  1  0
 17 35  1  0
 17 36  1  0
 18 19  1  0
 18 37  1  0
 18 38  1  0
 19 20  1  0
 19 39  1  0
 19 40  1  0
 20 41  1  0
 20 42  1  0
M  CHG  2   1   1  21  -1
M  END
>  <lm5_entropy_jk>  (1) 
22.585594734129973

>  <number_of_rotatable_bonds>  (1) 
5

>  <IC50_NM>  (1) 
1400

>  <charge>  (1) 
0

$$$$
