3QTX
     RDKit          3D

 41 43  0  0  1  0  0  0  0  0999 V2000
   66.0408  154.2760  -50.2710 N   0  0  0  0  0  0  0  0  0  0  0  0
   67.5978  153.4561  -51.8410 N   0  0  0  0  0  0  0  0  0  0  0  0
   64.6017  154.7035  -48.4874 N   0  0  0  0  0  0  0  0  0  0  0  0
   71.1398  149.2584  -46.1896 N   0  0  0  0  0  0  0  0  0  0  0  0
   61.7312  152.8101  -42.6654 N   0  0  0  0  0  0  0  0  0  0  0  0
   67.1071  153.4745  -50.5982 C   0  0  0  0  0  0  0  0  0  0  0  0
   67.5923  152.6661  -49.5765 C   0  0  0  0  0  0  0  0  0  0  0  0
   68.6051  151.6652  -49.6992 C   0  0  0  0  0  0  0  0  0  0  0  0
   68.6681  150.6375  -48.5968 C   0  0  0  0  0  0  0  0  0  0  0  0
   69.8709  150.3881  -47.9623 C   0  0  0  0  0  0  0  0  0  0  0  0
   69.8816  149.5010  -46.9032 C   0  0  0  0  0  0  0  0  0  0  0  0
   68.7533  148.8328  -46.4713 C   0  0  0  0  0  0  0  0  0  0  0  0
   67.5632  149.0690  -47.1296 C   0  0  0  0  0  0  0  0  0  0  0  0
   67.5218  149.9613  -48.1842 C   0  0  0  0  0  0  0  0  0  0  0  0
   65.6511  154.0298  -49.0404 C   0  0  0  0  0  0  0  0  0  0  0  0
   63.8239  154.4077  -47.3544 C   0  0  0  0  0  0  0  0  0  0  0  0
   62.9091  155.3787  -46.9328 C   0  0  0  0  0  0  0  0  0  0  0  0
   62.1012  155.1622  -45.8354 C   0  0  0  0  0  0  0  0  0  0  0  0
   62.1779  153.9663  -45.1344 C   0  0  0  0  0  0  0  0  0  0  0  0
   63.0696  152.9843  -45.5467 C   0  0  0  0  0  0  0  0  0  0  0  0
   63.8824  153.2055  -46.6471 C   0  0  0  0  0  0  0  0  0  0  0  0
   69.3919  151.6248  -50.6404 O   0  0  0  0  0  0  0  0  0  0  0  0
   72.1105  149.9092  -46.5142 O   0  0  0  0  0  0  0  0  0  0  0  0
   71.1236  148.4415  -45.2966 O   0  0  0  0  0  0  0  0  0  0  0  0
   59.9399  152.9522  -44.3040 O   0  0  0  0  0  0  0  0  0  0  0  0
   60.7310  155.0238  -43.2302 O   0  0  0  0  0  0  0  0  0  0  0  0
   66.6001  152.8945  -48.1639 S   0  0  0  0  0  0  0  0  0  0  0  0
   61.0269  153.7346  -43.7917 S   0  0  0  0  0  0  0  0  0  0  0  0
   67.2455  154.0639  -52.5589 H   0  0  0  0  0  0  0  0  0  0  0  0
   68.4126  152.8792  -51.9903 H   0  0  0  0  0  0  0  0  0  0  0  0
   70.7743  150.8793  -48.2766 H   0  0  0  0  0  0  0  0  0  0  0  0
   68.8142  148.1327  -45.6537 H   0  0  0  0  0  0  0  0  0  0  0  0
   66.6690  148.5632  -46.8072 H   0  0  0  0  0  0  0  0  0  0  0  0
   66.5850  150.1178  -48.6914 H   0  0  0  0  0  0  0  0  0  0  0  0
   64.1915  155.3811  -49.1080 H   0  0  0  0  0  0  0  0  0  0  0  0
   62.8065  156.3019  -47.4811 H   0  0  0  0  0  0  0  0  0  0  0  0
   61.3993  155.9229  -45.5200 H   0  0  0  0  0  0  0  0  0  0  0  0
   63.1221  152.0334  -45.0287 H   0  0  0  0  0  0  0  0  0  0  0  0
   64.5403  152.4087  -46.9498 H   0  0  0  0  0  0  0  0  0  0  0  0
   61.8304  151.8117  -42.9832 H   0  0  0  0  0  0  0  0  0  0  0  0
   62.5878  153.2022  -42.2919 H   0  0  0  0  0  0  0  0  0  0  0  0
  1  6  1  0
  1 15  2  0
  2  6  1  0
  2 29  1  0
  2 30  1  0
  3 15  1  0
  3 16  1  0
  3 35  1  0
  4 11  1  0
  4 23  2  0
  4 24  1  0
  5 28  1  0
  5 40  1  0
  5 41  1  0
  6  7  2  0
  7 27  1  0
  8  7  1  0
  8  9  1  0
  8 22  2  0
  9 10  2  0
  9 14  1  0
 10 11  1  0
 10 31  1  0
 11 12  2  0
 12 13  1  0
 12 32  1  0
 13 14  2  0
 13 33  1  0
 14 34  1  0
 15 27  1  0
 16 17  2  0
 16 21  1  0
 17 18  1  0
 17 36  1  0
 18 19  2  0
 18 37  1  0
 19 20  1  0
 19 28  1  0
 20 21  2  0
 20 38  1  0
 21 39  1  0
 25 28  2  0
 26 28  2  0
M  CHG  2   4   1  24  -1
M  END
>  <lm5_entropy_jk>  (1) 
24.48849005177307

>  <number_of_rotatable_bonds>  (1) 
6

>  <IC50_NM>  (1) 
70

>  <charge>  (1) 
0

$$$$
