3RKB
     RDKit          3D

 39 41  0  0  0  0  0  0  0  0999 V2000
   67.2679  152.6378  -49.4535 C   0  0  0  0  0  0  0  0  0  0  0  0
   66.8424  153.4406  -50.5252 C   0  0  0  0  0  0  0  0  0  0  0  0
   65.7520  154.2327  -50.2937 N   0  0  0  0  0  0  0  0  0  0  0  0
   65.3036  154.0604  -49.0631 C   0  0  0  0  0  0  0  0  0  0  0  0
   66.1700  152.8776  -48.1135 S   0  0  0  0  0  0  0  0  0  0  0  0
   68.4286  151.8131  -49.4984 C   0  0  0  0  0  0  0  0  0  0  0  0
   67.4371  153.4612  -51.7150 N   0  0  0  0  0  0  0  0  0  0  0  0
   64.2799  154.7298  -48.5487 N   0  0  0  0  0  0  0  0  0  0  0  0
   69.2174  151.8742  -50.4490 O   0  0  0  0  0  0  0  0  0  0  0  0
   69.4881  149.0092  -46.5343 C   0  0  0  0  0  0  0  0  0  0  0  0
   70.4432  149.7150  -47.1428 N   0  0  0  0  0  0  0  0  0  0  0  0
   70.0650  150.5951  -48.0736 C   0  0  0  0  0  0  0  0  0  0  0  0
   68.7385  150.8285  -48.4018 C   0  0  0  0  0  0  0  0  0  0  0  0
   67.7595  150.0809  -47.7563 C   0  0  0  0  0  0  0  0  0  0  0  0
   68.1379  149.1539  -46.8044 C   0  0  0  0  0  0  0  0  0  0  0  0
   62.2277  153.0915  -45.7790 C   0  0  0  0  0  0  0  0  0  0  0  0
   62.7733  153.2854  -47.1891 C   0  0  0  0  0  0  0  0  0  0  0  0
   63.7187  154.4855  -47.2288 C   0  0  0  0  0  0  0  0  0  0  0  0
   62.9978  155.7398  -46.7471 C   0  0  0  0  0  0  0  0  0  0  0  0
   62.4306  155.5537  -45.3441 C   0  0  0  0  0  0  0  0  0  0  0  0
   61.5060  154.3409  -45.2887 C   0  0  0  0  0  0  0  0  0  0  0  0
   67.0780  154.0132  -52.4822 H   0  0  0  0  0  0  0  0  0  0  0  0
   68.2649  152.8899  -51.7972 H   0  0  0  0  0  0  0  0  0  0  0  0
   63.7649  155.3607  -49.1617 H   0  0  0  0  0  0  0  0  0  0  0  0
   69.8161  148.2772  -45.8078 H   0  0  0  0  0  0  0  0  0  0  0  0
   70.8382  151.1445  -48.5940 H   0  0  0  0  0  0  0  0  0  0  0  0
   66.7180  150.1918  -48.0204 H   0  0  0  0  0  0  0  0  0  0  0  0
   67.4045  148.5346  -46.3135 H   0  0  0  0  0  0  0  0  0  0  0  0
   63.0581  152.8731  -45.1011 H   0  0  0  0  0  0  0  0  0  0  0  0
   61.5686  152.2318  -45.7246 H   0  0  0  0  0  0  0  0  0  0  0  0
   63.3029  152.3933  -47.5186 H   0  0  0  0  0  0  0  0  0  0  0  0
   61.9580  153.4636  -47.8964 H   0  0  0  0  0  0  0  0  0  0  0  0
   64.5514  154.2822  -46.5580 H   0  0  0  0  0  0  0  0  0  0  0  0
   62.1951  155.9635  -47.4520 H   0  0  0  0  0  0  0  0  0  0  0  0
   63.6844  156.5825  -46.7701 H   0  0  0  0  0  0  0  0  0  0  0  0
   61.8983  156.4547  -45.0402 H   0  0  0  0  0  0  0  0  0  0  0  0
   63.2525  155.4158  -44.6356 H   0  0  0  0  0  0  0  0  0  0  0  0
   61.1259  154.1806  -44.2798 H   0  0  0  0  0  0  0  0  0  0  0  0
   60.6414  154.5372  -45.9284 H   0  0  0  0  0  0  0  0  0  0  0  0
  1  5  1  0
  2  3  1  0
  2  1  2  0
  3  4  2  0
  4  8  1  0
  4  5  1  0
  6  1  1  0
  6 13  1  0
  7  2  1  0
  7 22  1  0
  7 23  1  0
  8 18  1  0
  8 24  1  0
  9  6  2  0
 10 25  1  0
 11 10  2  0
 12 11  1  0
 12 26  1  0
 13 12  2  0
 13 14  1  0
 14 15  2  0
 14 27  1  0
 15 10  1  0
 15 28  1  0
 16 21  1  0
 16 29  1  0
 16 30  1  0
 17 16  1  0
 17 31  1  0
 17 32  1  0
 18 17  1  0
 18 19  1  0
 18 33  1  0
 19 20  1  0
 19 34  1  0
 19 35  1  0
 20 21  1  0
 20 36  1  0
 20 37  1  0
 21 38  1  0
 21 39  1  0
M  END
>  <lm5_entropy_jk>  (1) 
20.214453483104165

>  <number_of_rotatable_bonds>  (1) 
4

>  <IC50_NM>  (1) 
380

>  <charge>  (1) 
0

$$$$
