3S1H
     RDKit          3D

 43 45  0  0  1  0  0  0  0  0999 V2000
   65.8860  154.1490  -50.4332 N   0  0  0  0  0  0  0  0  0  0  0  0
   67.6442  153.4464  -51.8061 N   0  0  0  0  0  0  0  0  0  0  0  0
   64.2865  154.5833  -48.8060 N   0  0  0  0  0  0  0  0  0  0  0  0
   61.5117  153.0459  -42.9884 N   0  0  0  0  0  0  0  0  0  0  0  0
   69.4970  149.0690  -46.3455 C   0  0  0  0  0  0  0  0  0  0  0  0
   70.4945  149.6418  -47.1318 C   0  0  0  0  0  0  0  0  0  0  0  0
   70.1577  150.4696  -48.1807 C   0  0  0  0  0  0  0  0  0  0  0  0
   67.8377  150.1223  -47.7169 C   0  0  0  0  0  0  0  0  0  0  0  0
   68.1586  149.2775  -46.6630 C   0  0  0  0  0  0  0  0  0  0  0  0
   68.9367  147.7812  -44.4315 C   0  0  0  0  0  0  0  0  0  0  0  0
   68.8244  150.7610  -48.4610 C   0  0  0  0  0  0  0  0  0  0  0  0
   68.5504  151.7171  -49.5822 C   0  0  0  0  0  0  0  0  0  0  0  0
   67.4217  152.5976  -49.5573 C   0  0  0  0  0  0  0  0  0  0  0  0
   67.0134  153.3899  -50.6359 C   0  0  0  0  0  0  0  0  0  0  0  0
   65.3958  153.9376  -49.2316 C   0  0  0  0  0  0  0  0  0  0  0  0
   63.5363  154.3776  -47.6433 C   0  0  0  0  0  0  0  0  0  0  0  0
   63.5303  153.1795  -46.9234 C   0  0  0  0  0  0  0  0  0  0  0  0
   62.7264  153.0514  -45.8067 C   0  0  0  0  0  0  0  0  0  0  0  0
   61.9339  154.1186  -45.4033 C   0  0  0  0  0  0  0  0  0  0  0  0
   61.8976  155.2974  -46.1295 C   0  0  0  0  0  0  0  0  0  0  0  0
   62.7058  155.4250  -47.2395 C   0  0  0  0  0  0  0  0  0  0  0  0
   59.7045  153.0541  -44.7231 O   0  0  0  0  0  0  0  0  0  0  0  0
   60.3319  155.1371  -43.5849 O   0  0  0  0  0  0  0  0  0  0  0  0
   69.3467  151.7605  -50.5298 O   0  0  0  0  0  0  0  0  0  0  0  0
   69.9291  148.3150  -45.2997 O   0  0  0  0  0  0  0  0  0  0  0  0
   66.3033  152.8384  -48.2408 S   0  0  0  0  0  0  0  0  0  0  0  0
   60.7495  153.8668  -44.1405 S   0  0  0  0  0  0  0  0  0  0  0  0
   71.5256  149.4038  -46.9160 H   0  0  0  0  0  0  0  0  0  0  0  0
   67.2532  153.9557  -52.5868 H   0  0  0  0  0  0  0  0  0  0  0  0
   68.4423  152.8378  -51.9048 H   0  0  0  0  0  0  0  0  0  0  0  0
   70.9177  150.9055  -48.8094 H   0  0  0  0  0  0  0  0  0  0  0  0
   63.8660  155.2443  -49.4640 H   0  0  0  0  0  0  0  0  0  0  0  0
   66.7960  150.2406  -47.9723 H   0  0  0  0  0  0  0  0  0  0  0  0
   61.5027  152.0277  -43.1405 H   0  0  0  0  0  0  0  0  0  0  0  0
   61.2876  153.3696  -42.0630 H   0  0  0  0  0  0  0  0  0  0  0  0
   67.3621  148.7733  -46.1410 H   0  0  0  0  0  0  0  0  0  0  0  0
   69.4752  147.1981  -43.6903 H   0  0  0  0  0  0  0  0  0  0  0  0
   68.2540  147.1371  -44.9792 H   0  0  0  0  0  0  0  0  0  0  0  0
   68.3935  148.5825  -43.9304 H   0  0  0  0  0  0  0  0  0  0  0  0
   64.0901  152.3269  -47.2644 H   0  0  0  0  0  0  0  0  0  0  0  0
   62.6835  152.1146  -45.2692 H   0  0  0  0  0  0  0  0  0  0  0  0
   61.2171  156.0881  -45.8542 H   0  0  0  0  0  0  0  0  0  0  0  0
   62.6485  156.3069  -47.8521 H   0  0  0  0  0  0  0  0  0  0  0  0
  1 14  1  0
  1 15  2  0
  2 14  1  0
  2 29  1  0
  2 30  1  0
  3 15  1  0
  3 16  1  0
  3 32  1  0
  4 27  1  0
  4 34  1  0
  4 35  1  0
  5  6  2  0
  5  9  1  0
  5 25  1  0
  6  7  1  0
  6 28  1  0
  7 11  2  0
  7 31  1  0
  8  9  2  0
  8 11  1  0
  8 33  1  0
  9 36  1  0
 10 25  1  0
 10 37  1  0
 10 38  1  0
 10 39  1  0
 12 11  1  0
 12 13  1  0
 12 24  2  0
 13 14  2  0
 13 26  1  0
 15 26  1  0
 16 17  2  0
 16 21  1  0
 17 18  1  0
 17 40  1  0
 18 19  2  0
 18 41  1  0
 19 20  1  0
 19 27  1  0
 20 21  2  0
 20 42  1  0
 21 43  1  0
 22 27  2  0
 23 27  2  0
M  END
>  <lm5_entropy_jk>  (1) 
33.50945403317048

>  <number_of_rotatable_bonds>  (1) 
6

>  <IC50_NM>  (1) 
17000

>  <charge>  (1) 
0

$$$$
