3RKB
     RDKit          3D

 39 41  0  0  0  0  0  0  0  0999 V2000
   67.3488  152.9373  -49.6642 C   0  0  0  0  0  0  0  0  0  0  0  0
   66.8078  153.7050  -50.7008 C   0  0  0  0  0  0  0  0  0  0  0  0
   65.7714  154.5312  -50.3738 N   0  0  0  0  0  0  0  0  0  0  0  0
   65.4423  154.3656  -49.1108 C   0  0  0  0  0  0  0  0  0  0  0  0
   66.3909  153.2058  -48.2249 S   0  0  0  0  0  0  0  0  0  0  0  0
   68.4513  152.0540  -49.8322 C   0  0  0  0  0  0  0  0  0  0  0  0
   67.2431  153.6655  -51.9541 N   0  0  0  0  0  0  0  0  0  0  0  0
   64.4754  155.0932  -48.5237 N   0  0  0  0  0  0  0  0  0  0  0  0
   69.1280  152.0681  -50.8638 O   0  0  0  0  0  0  0  0  0  0  0  0
   69.8221  149.3014  -46.9609 C   0  0  0  0  0  0  0  0  0  0  0  0
   70.7021  150.1076  -47.5754 N   0  0  0  0  0  0  0  0  0  0  0  0
   70.1958  150.9633  -48.4574 C   0  0  0  0  0  0  0  0  0  0  0  0
   68.8433  151.0917  -48.7474 C   0  0  0  0  0  0  0  0  0  0  0  0
   67.9500  150.2553  -48.0920 C   0  0  0  0  0  0  0  0  0  0  0  0
   68.4561  149.3354  -47.1886 C   0  0  0  0  0  0  0  0  0  0  0  0
   62.6827  153.4340  -45.5778 C   0  0  0  0  0  0  0  0  0  0  0  0
   63.1167  153.5878  -47.0325 C   0  0  0  0  0  0  0  0  0  0  0  0
   63.9510  154.8552  -47.1849 C   0  0  0  0  0  0  0  0  0  0  0  0
   63.1470  156.0718  -46.7457 C   0  0  0  0  0  0  0  0  0  0  0  0
   62.7233  155.9348  -45.2911 C   0  0  0  0  0  0  0  0  0  0  0  0
   61.9208  154.6574  -45.0780 C   0  0  0  0  0  0  0  0  0  0  0  0
   66.8028  154.2219  -52.6654 H   0  0  0  0  0  0  0  0  0  0  0  0
   68.0387  153.0728  -52.1280 H   0  0  0  0  0  0  0  0  0  0  0  0
   63.8311  155.5333  -49.1597 H   0  0  0  0  0  0  0  0  0  0  0  0
   70.2341  148.6017  -46.2449 H   0  0  0  0  0  0  0  0  0  0  0  0
   70.8997  151.5988  -48.9794 H   0  0  0  0  0  0  0  0  0  0  0  0
   66.8863  150.2890  -48.2919 H   0  0  0  0  0  0  0  0  0  0  0  0
   67.7990  148.6467  -46.6704 H   0  0  0  0  0  0  0  0  0  0  0  0
   63.5758  153.2946  -44.9639 H   0  0  0  0  0  0  0  0  0  0  0  0
   62.0811  152.5362  -45.4526 H   0  0  0  0  0  0  0  0  0  0  0  0
   63.6973  152.7215  -47.3427 H   0  0  0  0  0  0  0  0  0  0  0  0
   62.2492  153.6546  -47.6888 H   0  0  0  0  0  0  0  0  0  0  0  0
   64.8054  154.7592  -46.5225 H   0  0  0  0  0  0  0  0  0  0  0  0
   62.2681  156.1507  -47.3896 H   0  0  0  0  0  0  0  0  0  0  0  0
   63.7361  156.9710  -46.8865 H   0  0  0  0  0  0  0  0  0  0  0  0
   62.1497  156.8089  -44.9851 H   0  0  0  0  0  0  0  0  0  0  0  0
   63.6209  155.9060  -44.6687 H   0  0  0  0  0  0  0  0  0  0  0  0
   61.6728  154.5362  -44.0252 H   0  0  0  0  0  0  0  0  0  0  0  0
   60.9791  154.7413  -45.6195 H   0  0  0  0  0  0  0  0  0  0  0  0
  1  5  1  0
  2  3  1  0
  2  1  2  0
  3  4  2  0
  4  8  1  0
  4  5  1  0
  6  1  1  0
  6 13  1  0
  7  2  1  0
  7 22  1  0
  7 23  1  0
  8 18  1  0
  8 24  1  0
  9  6  2  0
 10 25  1  0
 11 10  2  0
 12 11  1  0
 12 26  1  0
 13 12  2  0
 13 14  1  0
 14 15  2  0
 14 27  1  0
 15 10  1  0
 15 28  1  0
 16 21  1  0
 16 29  1  0
 16 30  1  0
 17 16  1  0
 17 31  1  0
 17 32  1  0
 18 17  1  0
 18 19  1  0
 18 33  1  0
 19 20  1  0
 19 34  1  0
 19 35  1  0
 20 21  1  0
 20 36  1  0
 20 37  1  0
 21 38  1  0
 21 39  1  0
M  END
>  <lm5_entropy_jk>  (1) 
20.214453483104165

>  <number_of_rotatable_bonds>  (1) 
4

>  <IC50_NM>  (1) 
380

>  <charge>  (1) 
0

$$$$
