3QTS
     RDKit          3D

 38 40  0  0  1  0  0  0  0  0999 V2000
   65.7246  154.2873  -50.0013 N   0  0  0  0  0  0  0  0  0  0  0  0
   67.4615  153.5427  -51.3694 N   0  0  0  0  0  0  0  0  0  0  0  0
   64.0395  154.5932  -48.4263 N   0  0  0  0  0  0  0  0  0  0  0  0
   68.6281  149.3792  -45.5923 C   0  0  0  0  0  0  0  0  0  0  0  0
   68.3683  150.7325  -45.4293 C   0  0  0  0  0  0  0  0  0  0  0  0
   68.3390  151.5600  -46.5437 C   0  0  0  0  0  0  0  0  0  0  0  0
   68.8840  149.7132  -47.9736 C   0  0  0  0  0  0  0  0  0  0  0  0
   68.8938  148.8892  -46.8639 C   0  0  0  0  0  0  0  0  0  0  0  0
   67.8221  150.5274  -43.1269 C   0  0  0  0  0  0  0  0  0  0  0  0
   68.5764  151.0576  -47.8151 C   0  0  0  0  0  0  0  0  0  0  0  0
   68.4138  151.9132  -49.0447 C   0  0  0  0  0  0  0  0  0  0  0  0
   67.2823  152.7834  -49.0903 C   0  0  0  0  0  0  0  0  0  0  0  0
   66.8567  153.5388  -50.1778 C   0  0  0  0  0  0  0  0  0  0  0  0
   65.1773  153.9946  -48.8370 C   0  0  0  0  0  0  0  0  0  0  0  0
   63.3345  154.4432  -47.2161 C   0  0  0  0  0  0  0  0  0  0  0  0
   63.4374  153.3352  -46.3799 C   0  0  0  0  0  0  0  0  0  0  0  0
   62.7444  153.3007  -45.1793 C   0  0  0  0  0  0  0  0  0  0  0  0
   61.9069  154.3404  -44.8161 C   0  0  0  0  0  0  0  0  0  0  0  0
   61.7641  155.4255  -45.6709 C   0  0  0  0  0  0  0  0  0  0  0  0
   62.4723  155.4801  -46.8555 C   0  0  0  0  0  0  0  0  0  0  0  0
   69.2179  151.8394  -49.9766 O   0  0  0  0  0  0  0  0  0  0  0  0
   68.1425  151.3500  -44.2389 O   0  0  0  0  0  0  0  0  0  0  0  0
   66.0275  152.8478  -47.8763 S   0  0  0  0  0  0  0  0  0  0  0  0
   68.5946  148.6953  -44.7586 H   0  0  0  0  0  0  0  0  0  0  0  0
   67.0620  154.0411  -52.1415 H   0  0  0  0  0  0  0  0  0  0  0  0
   68.2899  152.9779  -51.4563 H   0  0  0  0  0  0  0  0  0  0  0  0
   68.1227  152.5981  -46.3619 H   0  0  0  0  0  0  0  0  0  0  0  0
   63.5977  155.1905  -49.1054 H   0  0  0  0  0  0  0  0  0  0  0  0
   69.0682  149.3167  -48.9577 H   0  0  0  0  0  0  0  0  0  0  0  0
   69.0804  147.8324  -46.9803 H   0  0  0  0  0  0  0  0  0  0  0  0
   67.4668  151.1957  -42.3495 H   0  0  0  0  0  0  0  0  0  0  0  0
   68.6975  149.9851  -42.7681 H   0  0  0  0  0  0  0  0  0  0  0  0
   67.0323  149.8186  -43.3800 H   0  0  0  0  0  0  0  0  0  0  0  0
   64.0230  152.4716  -46.6452 H   0  0  0  0  0  0  0  0  0  0  0  0
   62.8565  152.4341  -44.5365 H   0  0  0  0  0  0  0  0  0  0  0  0
   61.3768  154.2989  -43.8788 H   0  0  0  0  0  0  0  0  0  0  0  0
   61.0951  156.2375  -45.4204 H   0  0  0  0  0  0  0  0  0  0  0  0
   62.3393  156.3098  -47.5318 H   0  0  0  0  0  0  0  0  0  0  0  0
  1 13  1  0
  1 14  2  0
  2 13  1  0
  2 25  1  0
  2 26  1  0
  3 14  1  0
  3 15  1  0
  3 28  1  0
  4  5  2  0
  4  8  1  0
  4 24  1  0
  5  6  1  0
  5 22  1  0
  6 10  2  0
  6 27  1  0
  7  8  2  0
  7 10  1  0
  7 29  1  0
  8 30  1  0
  9 22  1  0
  9 31  1  0
  9 32  1  0
  9 33  1  0
 11 10  1  0
 11 12  1  0
 11 21  2  0
 12 13  2  0
 12 23  1  0
 14 23  1  0
 15 16  2  0
 15 20  1  0
 16 17  1  0
 16 34  1  0
 17 18  2  0
 17 35  1  0
 18 19  1  0
 18 36  1  0
 19 20  2  0
 19 37  1  0
 20 38  1  0
M  END
>  <lm5_entropy_jk>  (1) 
31.97375871552738

>  <number_of_rotatable_bonds>  (1) 
5

>  <IC50_NM>  (1) 
3100

>  <charge>  (1) 
0

$$$$
