3QXP
     RDKit          3D

 41 43  0  0  0  0  0  0  0  0999 V2000
   65.7780  154.3143  -50.5930 N   0  0  0  0  0  0  0  0  0  0  0  0
   64.2592  154.7567  -48.9056 N   0  0  0  0  0  0  0  0  0  0  0  0
   67.4551  153.6086  -52.0562 N   0  0  0  0  0  0  0  0  0  0  0  0
   61.4403  153.2726  -43.0712 N   0  0  0  0  0  0  0  0  0  0  0  0
   71.2087  151.1153  -49.1719 N   0  0  0  0  0  0  0  0  0  0  0  0
   67.3456  152.7546  -49.8009 C   0  0  0  0  0  0  0  0  0  0  0  0
   66.8811  153.5465  -50.8591 C   0  0  0  0  0  0  0  0  0  0  0  0
   65.3450  154.1040  -49.3692 C   0  0  0  0  0  0  0  0  0  0  0  0
   63.5143  154.5492  -47.7388 C   0  0  0  0  0  0  0  0  0  0  0  0
   68.4086  151.8176  -49.9425 C   0  0  0  0  0  0  0  0  0  0  0  0
   68.7390  150.8105  -48.8703 C   0  0  0  0  0  0  0  0  0  0  0  0
   70.0485  150.3783  -48.6561 C   0  0  0  0  0  0  0  0  0  0  0  0
   70.3410  149.2687  -47.8834 C   0  0  0  0  0  0  0  0  0  0  0  0
   69.3142  148.5840  -47.2528 C   0  0  0  0  0  0  0  0  0  0  0  0
   68.0056  148.9963  -47.4310 C   0  0  0  0  0  0  0  0  0  0  0  0
   67.7285  150.0861  -48.2475 C   0  0  0  0  0  0  0  0  0  0  0  0
   63.4882  153.3465  -47.0278 C   0  0  0  0  0  0  0  0  0  0  0  0
   62.6759  153.2265  -45.9150 C   0  0  0  0  0  0  0  0  0  0  0  0
   61.9055  154.3073  -45.5050 C   0  0  0  0  0  0  0  0  0  0  0  0
   61.8951  155.4927  -46.2200 C   0  0  0  0  0  0  0  0  0  0  0  0
   62.7042  155.6094  -47.3301 C   0  0  0  0  0  0  0  0  0  0  0  0
   69.0619  151.7432  -50.9872 O   0  0  0  0  0  0  0  0  0  0  0  0
   59.6680  153.2579  -44.8430 O   0  0  0  0  0  0  0  0  0  0  0  0
   60.2831  155.3588  -43.7255 O   0  0  0  0  0  0  0  0  0  0  0  0
   72.1872  150.4464  -49.5143 O   0  0  0  0  0  0  0  0  0  0  0  0
   71.1897  152.3230  -49.1799 O   0  0  0  0  0  0  0  0  0  0  0  0
   66.3075  153.0085  -48.4201 S   0  0  0  0  0  0  0  0  0  0  0  0
   60.7008  154.0772  -44.2562 S   0  0  0  0  0  0  0  0  0  0  0  0
   63.8180  155.4025  -49.5658 H   0  0  0  0  0  0  0  0  0  0  0  0
   67.0187  154.1017  -52.8229 H   0  0  0  0  0  0  0  0  0  0  0  0
   68.1850  152.9314  -52.2188 H   0  0  0  0  0  0  0  0  0  0  0  0
   61.3230  152.2588  -43.1616 H   0  0  0  0  0  0  0  0  0  0  0  0
   61.2619  153.6671  -42.1635 H   0  0  0  0  0  0  0  0  0  0  0  0
   71.3634  148.9304  -47.8032 H   0  0  0  0  0  0  0  0  0  0  0  0
   69.5202  147.7112  -46.6536 H   0  0  0  0  0  0  0  0  0  0  0  0
   67.1997  148.4505  -46.9656 H   0  0  0  0  0  0  0  0  0  0  0  0
   66.6976  150.3445  -48.4305 H   0  0  0  0  0  0  0  0  0  0  0  0
   64.0395  152.4884  -47.3724 H   0  0  0  0  0  0  0  0  0  0  0  0
   62.6013  152.2835  -45.3928 H   0  0  0  0  0  0  0  0  0  0  0  0
   61.2293  156.2924  -45.9356 H   0  0  0  0  0  0  0  0  0  0  0  0
   62.6635  156.4934  -47.9405 H   0  0  0  0  0  0  0  0  0  0  0  0
  1  8  2  0
  2  9  1  0
  2 29  1  0
  3  7  1  0
  3 30  1  0
  3 31  1  0
  4 32  1  0
  4 33  1  0
  5 12  1  0
  6 27  1  0
  7  1  1  0
  7  6  2  0
  8  2  1  0
  8 27  1  0
  9 21  1  0
  9 17  2  0
 10  6  1  0
 10 11  1  0
 11 16  1  0
 11 12  2  0
 12 13  1  0
 13 14  2  0
 13 34  1  0
 14 35  1  0
 15 14  1  0
 15 36  1  0
 16 15  2  0
 16 37  1  0
 17 18  1  0
 17 38  1  0
 18 19  2  0
 18 39  1  0
 19 28  1  0
 20 19  1  0
 20 40  1  0
 21 20  2  0
 21 41  1  0
 22 10  2  0
 23 28  2  0
 25  5  1  0
 26  5  2  0
 28 24  2  0
 28  4  1  0
M  CHG  2   5   1  25  -1
M  END
>  <lm5_entropy_jk>  (1) 
23.933690845995674

>  <number_of_rotatable_bonds>  (1) 
6

>  <IC50_NM>  (1) 
20

>  <charge>  (1) 
0

$$$$
