3RK9
     RDKit          3D

 32 33  0  0  1  0  0  0  0  0999 V2000
   64.3548  154.9054  -48.6656 N   0  0  0  0  0  0  0  0  0  0  0  0
   65.7948  154.4220  -50.4460 N   0  0  0  0  0  0  0  0  0  0  0  0
   67.4522  153.6640  -51.9083 N   0  0  0  0  0  0  0  0  0  0  0  0
   70.4337  149.7845  -47.4183 N   0  0  0  0  0  0  0  0  0  0  0  0
   63.0013  155.8079  -46.8748 C   0  0  0  0  0  0  0  0  0  0  0  0
   63.7731  154.5921  -47.3611 C   0  0  0  0  0  0  0  0  0  0  0  0
   62.8718  153.3650  -47.4196 C   0  0  0  0  0  0  0  0  0  0  0  0
   65.3749  154.2451  -49.2049 C   0  0  0  0  0  0  0  0  0  0  0  0
   66.8845  153.6366  -50.7033 C   0  0  0  0  0  0  0  0  0  0  0  0
   67.3498  152.8534  -49.6378 C   0  0  0  0  0  0  0  0  0  0  0  0
   68.4981  152.0129  -49.7118 C   0  0  0  0  0  0  0  0  0  0  0  0
   68.7734  150.9734  -48.6588 C   0  0  0  0  0  0  0  0  0  0  0  0
   67.7757  150.1878  -48.0935 C   0  0  0  0  0  0  0  0  0  0  0  0
   68.1227  149.1959  -47.1954 C   0  0  0  0  0  0  0  0  0  0  0  0
   69.4623  149.0350  -46.8895 C   0  0  0  0  0  0  0  0  0  0  0  0
   70.0880  150.7200  -48.3043 C   0  0  0  0  0  0  0  0  0  0  0  0
   69.3016  152.1068  -50.6461 O   0  0  0  0  0  0  0  0  0  0  0  0
   66.2950  153.0949  -48.2673 S   0  0  0  0  0  0  0  0  0  0  0  0
   63.6604  156.6595  -46.7304 H   0  0  0  0  0  0  0  0  0  0  0  0
   62.5078  155.5882  -45.9296 H   0  0  0  0  0  0  0  0  0  0  0  0
   62.2353  156.0819  -47.5961 H   0  0  0  0  0  0  0  0  0  0  0  0
   64.5973  154.3957  -46.6768 H   0  0  0  0  0  0  0  0  0  0  0  0
   62.0935  153.5070  -48.1705 H   0  0  0  0  0  0  0  0  0  0  0  0
   62.3939  153.1903  -46.4556 H   0  0  0  0  0  0  0  0  0  0  0  0
   63.4439  152.4796  -47.6762 H   0  0  0  0  0  0  0  0  0  0  0  0
   63.7622  155.4327  -49.3077 H   0  0  0  0  0  0  0  0  0  0  0  0
   67.0127  154.1195  -52.6964 H   0  0  0  0  0  0  0  0  0  0  0  0
   68.2311  153.0376  -52.0392 H   0  0  0  0  0  0  0  0  0  0  0  0
   66.7417  150.3246  -48.3743 H   0  0  0  0  0  0  0  0  0  0  0  0
   67.3745  148.5539  -46.7581 H   0  0  0  0  0  0  0  0  0  0  0  0
   69.7675  148.2573  -46.2028 H   0  0  0  0  0  0  0  0  0  0  0  0
   70.8803  151.2985  -48.7604 H   0  0  0  0  0  0  0  0  0  0  0  0
  1  6  1  0
  1  8  1  0
  1 26  1  0
  2  8  2  0
  2  9  1  0
  3  9  1  0
  3 27  1  0
  3 28  1  0
  4 15  2  0
  4 16  1  0
  5  6  1  0
  5 19  1  0
  5 20  1  0
  5 21  1  0
  6  7  1  0
  6 22  1  0
  7 23  1  0
  7 24  1  0
  7 25  1  0
  8 18  1  0
  9 10  2  0
 10 18  1  0
 11 10  1  0
 11 12  1  0
 11 17  2  0
 12 13  1  0
 12 16  2  0
 13 14  2  0
 13 29  1  0
 14 15  1  0
 14 30  1  0
 15 31  1  0
 16 32  1  0
M  END
>  <lm5_entropy_jk>  (1) 
34.96174716553827

>  <number_of_rotatable_bonds>  (1) 
4

>  <IC50_NM>  (1) 
520

>  <charge>  (1) 
0

$$$$
