3QTS
     RDKit          3D

 38 40  0  0  1  0  0  0  0  0999 V2000
   65.2803  154.2392  -50.5217 N   0  0  0  0  0  0  0  0  0  0  0  0
   67.1139  153.4668  -51.7542 N   0  0  0  0  0  0  0  0  0  0  0  0
   63.5647  154.6966  -49.0168 N   0  0  0  0  0  0  0  0  0  0  0  0
   68.7765  149.8497  -45.7318 C   0  0  0  0  0  0  0  0  0  0  0  0
   68.3612  151.1737  -45.6461 C   0  0  0  0  0  0  0  0  0  0  0  0
   68.1234  151.9019  -46.8096 C   0  0  0  0  0  0  0  0  0  0  0  0
   68.7257  149.9876  -48.1375 C   0  0  0  0  0  0  0  0  0  0  0  0
   68.9616  149.2714  -46.9789 C   0  0  0  0  0  0  0  0  0  0  0  0
   68.4840  151.1547  -43.2772 C   0  0  0  0  0  0  0  0  0  0  0  0
   68.2814  151.3024  -48.0503 C   0  0  0  0  0  0  0  0  0  0  0  0
   67.9879  152.0304  -49.3296 C   0  0  0  0  0  0  0  0  0  0  0  0
   66.8610  152.9037  -49.4192 C   0  0  0  0  0  0  0  0  0  0  0  0
   66.4529  153.5347  -50.6005 C   0  0  0  0  0  0  0  0  0  0  0  0
   64.7268  154.0972  -49.3345 C   0  0  0  0  0  0  0  0  0  0  0  0
   62.8371  154.5572  -47.8180 C   0  0  0  0  0  0  0  0  0  0  0  0
   62.7746  153.3625  -47.1019 C   0  0  0  0  0  0  0  0  0  0  0  0
   62.0350  153.2967  -45.9303 C   0  0  0  0  0  0  0  0  0  0  0  0
   61.3296  154.3994  -45.4775 C   0  0  0  0  0  0  0  0  0  0  0  0
   61.3595  155.5737  -46.2149 C   0  0  0  0  0  0  0  0  0  0  0  0
   62.1077  155.6580  -47.3752 C   0  0  0  0  0  0  0  0  0  0  0  0
   68.7058  151.8218  -50.3142 O   0  0  0  0  0  0  0  0  0  0  0  0
   68.1734  151.8415  -44.4833 O   0  0  0  0  0  0  0  0  0  0  0  0
   65.6230  153.1326  -48.2070 S   0  0  0  0  0  0  0  0  0  0  0  0
   68.9678  149.2672  -44.8453 H   0  0  0  0  0  0  0  0  0  0  0  0
   66.8320  153.9805  -52.5781 H   0  0  0  0  0  0  0  0  0  0  0  0
   67.9465  152.8963  -51.7397 H   0  0  0  0  0  0  0  0  0  0  0  0
   67.8608  152.9423  -46.7114 H   0  0  0  0  0  0  0  0  0  0  0  0
   63.2290  155.4276  -49.6472 H   0  0  0  0  0  0  0  0  0  0  0  0
   68.8758  149.5433  -49.1078 H   0  0  0  0  0  0  0  0  0  0  0  0
   69.2723  148.2405  -47.0316 H   0  0  0  0  0  0  0  0  0  0  0  0
   68.2685  151.8394  -42.4720 H   0  0  0  0  0  0  0  0  0  0  0  0
   69.5404  150.9048  -43.2295 H   0  0  0  0  0  0  0  0  0  0  0  0
   67.8754  150.2584  -43.1639 H   0  0  0  0  0  0  0  0  0  0  0  0
   63.2603  152.4753  -47.4697 H   0  0  0  0  0  0  0  0  0  0  0  0
   61.9670  152.3655  -45.3902 H   0  0  0  0  0  0  0  0  0  0  0  0
   60.7384  154.3307  -44.5771 H   0  0  0  0  0  0  0  0  0  0  0  0
   60.7708  156.4251  -45.9090 H   0  0  0  0  0  0  0  0  0  0  0  0
   62.0992  156.5570  -47.9721 H   0  0  0  0  0  0  0  0  0  0  0  0
  1 13  1  0
  1 14  2  0
  2 13  1  0
  2 25  1  0
  2 26  1  0
  3 14  1  0
  3 15  1  0
  3 28  1  0
  4  5  2  0
  4  8  1  0
  4 24  1  0
  5  6  1  0
  5 22  1  0
  6 10  2  0
  6 27  1  0
  7  8  2  0
  7 10  1  0
  7 29  1  0
  8 30  1  0
  9 22  1  0
  9 31  1  0
  9 32  1  0
  9 33  1  0
 11 10  1  0
 11 12  1  0
 11 21  2  0
 12 13  2  0
 12 23  1  0
 14 23  1  0
 15 16  2  0
 15 20  1  0
 16 17  1  0
 16 34  1  0
 17 18  2  0
 17 35  1  0
 18 19  1  0
 18 36  1  0
 19 20  2  0
 19 37  1  0
 20 38  1  0
M  END
>  <lm5_entropy_jk>  (1) 
31.97375871552738

>  <number_of_rotatable_bonds>  (1) 
5

>  <IC50_NM>  (1) 
3100

>  <charge>  (1) 
0

$$$$
