3QTZ
     RDKit          3D

 39 41  0  0  0  0  0  0  0  0999 V2000
   65.5830  154.0154  -50.6842 N   0  0  0  0  0  0  0  0  0  0  0  0
   63.9693  154.5859  -49.1059 N   0  0  0  0  0  0  0  0  0  0  0  0
   67.3485  153.1772  -51.9772 N   0  0  0  0  0  0  0  0  0  0  0  0
   61.0829  153.1851  -43.2282 N   0  0  0  0  0  0  0  0  0  0  0  0
   67.1498  152.6095  -49.6408 C   0  0  0  0  0  0  0  0  0  0  0  0
   66.7313  153.2683  -50.7998 C   0  0  0  0  0  0  0  0  0  0  0  0
   65.0868  153.9177  -49.4707 C   0  0  0  0  0  0  0  0  0  0  0  0
   63.1941  154.4015  -47.9540 C   0  0  0  0  0  0  0  0  0  0  0  0
   68.3149  151.7788  -49.5670 C   0  0  0  0  0  0  0  0  0  0  0  0
   68.5093  150.8139  -48.4283 C   0  0  0  0  0  0  0  0  0  0  0  0
   67.4417  150.0987  -47.8921 C   0  0  0  0  0  0  0  0  0  0  0  0
   67.6508  149.1638  -46.8901 C   0  0  0  0  0  0  0  0  0  0  0  0
   68.9271  148.9500  -46.3980 C   0  0  0  0  0  0  0  0  0  0  0  0
   69.9682  149.6680  -46.9424 C   0  0  0  0  0  0  0  0  0  0  0  0
   69.8011  150.5785  -47.9654 C   0  0  0  0  0  0  0  0  0  0  0  0
   62.4168  155.4754  -47.5211 C   0  0  0  0  0  0  0  0  0  0  0  0
   61.5867  155.3475  -46.4246 C   0  0  0  0  0  0  0  0  0  0  0  0
   61.5345  154.1370  -45.7559 C   0  0  0  0  0  0  0  0  0  0  0  0
   62.2885  153.0505  -46.1825 C   0  0  0  0  0  0  0  0  0  0  0  0
   63.1191  153.1793  -47.2780 C   0  0  0  0  0  0  0  0  0  0  0  0
   69.1697  151.8137  -50.4569 O   0  0  0  0  0  0  0  0  0  0  0  0
   59.4057  152.9170  -44.9570 O   0  0  0  0  0  0  0  0  0  0  0  0
   59.8285  155.1761  -44.0898 O   0  0  0  0  0  0  0  0  0  0  0  0
   65.9982  152.9291  -48.3692 S   0  0  0  0  0  0  0  0  0  0  0  0
   60.3548  153.8957  -44.4794 S   0  0  0  0  0  0  0  0  0  0  0  0
   71.2145  149.4669  -46.4388 F   0  0  0  0  0  0  0  0  0  0  0  0
   63.6092  155.2865  -49.7559 H   0  0  0  0  0  0  0  0  0  0  0  0
   67.0575  153.7508  -52.7561 H   0  0  0  0  0  0  0  0  0  0  0  0
   68.2358  152.6976  -51.9643 H   0  0  0  0  0  0  0  0  0  0  0  0
   61.1939  152.1768  -43.3777 H   0  0  0  0  0  0  0  0  0  0  0  0
   61.8930  153.6579  -42.8596 H   0  0  0  0  0  0  0  0  0  0  0  0
   66.4462  150.2399  -48.2780 H   0  0  0  0  0  0  0  0  0  0  0  0
   66.8208  148.5913  -46.5087 H   0  0  0  0  0  0  0  0  0  0  0  0
   69.1227  148.2232  -45.6275 H   0  0  0  0  0  0  0  0  0  0  0  0
   70.6512  151.0906  -48.3886 H   0  0  0  0  0  0  0  0  0  0  0  0
   62.4184  156.3843  -48.0971 H   0  0  0  0  0  0  0  0  0  0  0  0
   60.9526  156.1626  -46.1154 H   0  0  0  0  0  0  0  0  0  0  0  0
   62.1939  152.0992  -45.6781 H   0  0  0  0  0  0  0  0  0  0  0  0
   63.6547  152.3184  -47.6369 H   0  0  0  0  0  0  0  0  0  0  0  0
  1  7  2  0
  2  8  1  0
  2 27  1  0
  3  6  1  0
  3 28  1  0
  3 29  1  0
  4 30  1  0
  4 31  1  0
  5 24  1  0
  6  1  1  0
  6  5  2  0
  7  2  1  0
  7 24  1  0
  8 16  2  0
  8 20  1  0
  9  5  1  0
  9 10  1  0
 10 15  1  0
 10 11  2  0
 11 12  1  0
 11 32  1  0
 12 13  2  0
 12 33  1  0
 13 34  1  0
 14 26  1  0
 14 13  1  0
 15 14  2  0
 15 35  1  0
 16 17  1  0
 16 36  1  0
 17 18  2  0
 17 37  1  0
 18 25  1  0
 19 18  1  0
 19 38  1  0
 20 19  2  0
 20 39  1  0
 21  9  2  0
 22 25  2  0
 25 23  2  0
 25  4  1  0
M  END
>  <lm5_entropy_jk>  (1) 
22.397995528352578

>  <number_of_rotatable_bonds>  (1) 
5

>  <IC50_NM>  (1) 
50

>  <charge>  (1) 
0

$$$$
