3SQQ
     RDKit          3D

 42 44  0  0  0  0  0  0  0  0999 V2000
   65.7192  154.4039  -50.5989 N   0  0  0  0  0  0  0  0  0  0  0  0
   64.1981  154.8311  -48.9102 N   0  0  0  0  0  0  0  0  0  0  0  0
   67.3927  153.7015  -52.0701 N   0  0  0  0  0  0  0  0  0  0  0  0
   61.3885  153.3003  -43.0825 N   0  0  0  0  0  0  0  0  0  0  0  0
   67.2477  152.7937  -49.8370 C   0  0  0  0  0  0  0  0  0  0  0  0
   66.8083  153.6187  -50.8760 C   0  0  0  0  0  0  0  0  0  0  0  0
   65.2760  154.1731  -49.3821 C   0  0  0  0  0  0  0  0  0  0  0  0
   63.4645  154.6225  -47.7383 C   0  0  0  0  0  0  0  0  0  0  0  0
   68.2779  151.8147  -49.9873 C   0  0  0  0  0  0  0  0  0  0  0  0
   68.5829  150.8209  -48.9040 C   0  0  0  0  0  0  0  0  0  0  0  0
   69.9091  150.5110  -48.5863 C   0  0  0  0  0  0  0  0  0  0  0  0
   70.1424  149.5171  -47.6404 C   0  0  0  0  0  0  0  0  0  0  0  0
   69.1092  148.8213  -47.0398 C   0  0  0  0  0  0  0  0  0  0  0  0
   67.7965  149.1215  -47.3673 C   0  0  0  0  0  0  0  0  0  0  0  0
   67.5434  150.1193  -48.2930 C   0  0  0  0  0  0  0  0  0  0  0  0
   63.4391  153.4163  -47.0313 C   0  0  0  0  0  0  0  0  0  0  0  0
   62.6333  153.2958  -45.9148 C   0  0  0  0  0  0  0  0  0  0  0  0
   61.8702  154.3779  -45.4953 C   0  0  0  0  0  0  0  0  0  0  0  0
   61.8608  155.5666  -46.2041 C   0  0  0  0  0  0  0  0  0  0  0  0
   62.6615  155.6838  -47.3199 C   0  0  0  0  0  0  0  0  0  0  0  0
   71.0867  151.2009  -49.2168 C   0  0  0  0  0  0  0  0  0  0  0  0
   68.9221  151.7645  -51.0424 O   0  0  0  0  0  0  0  0  0  0  0  0
   60.2472  155.4076  -43.7041 O   0  0  0  0  0  0  0  0  0  0  0  0
   59.6291  153.3291  -44.8650 O   0  0  0  0  0  0  0  0  0  0  0  0
   66.2101  153.0410  -48.4546 S   0  0  0  0  0  0  0  0  0  0  0  0
   60.6593  154.1333  -44.2569 S   0  0  0  0  0  0  0  0  0  0  0  0
   63.7615  155.4834  -49.5665 H   0  0  0  0  0  0  0  0  0  0  0  0
   66.9515  154.1844  -52.8407 H   0  0  0  0  0  0  0  0  0  0  0  0
   68.0922  152.9943  -52.2412 H   0  0  0  0  0  0  0  0  0  0  0  0
   61.2341  152.2923  -43.1705 H   0  0  0  0  0  0  0  0  0  0  0  0
   61.2476  153.7001  -42.1708 H   0  0  0  0  0  0  0  0  0  0  0  0
   71.1697  149.2659  -47.4113 H   0  0  0  0  0  0  0  0  0  0  0  0
   69.3109  148.0199  -46.3466 H   0  0  0  0  0  0  0  0  0  0  0  0
   66.9789  148.5789  -46.9199 H   0  0  0  0  0  0  0  0  0  0  0  0
   66.5214  150.3235  -48.5702 H   0  0  0  0  0  0  0  0  0  0  0  0
   63.9801  152.5557  -47.3842 H   0  0  0  0  0  0  0  0  0  0  0  0
   62.5552  152.3499  -45.3981 H   0  0  0  0  0  0  0  0  0  0  0  0
   61.2015  156.3692  -45.9130 H   0  0  0  0  0  0  0  0  0  0  0  0
   62.6162  156.5680  -47.9298 H   0  0  0  0  0  0  0  0  0  0  0  0
   70.9299  151.3707  -50.2735 H   0  0  0  0  0  0  0  0  0  0  0  0
   71.9677  150.5804  -49.0837 H   0  0  0  0  0  0  0  0  0  0  0  0
   71.2569  152.1707  -48.7519 H   0  0  0  0  0  0  0  0  0  0  0  0
  1  7  2  0
  2  8  1  0
  2 27  1  0
  3  6  1  0
  3 28  1  0
  3 29  1  0
  4 30  1  0
  4 31  1  0
  5 25  1  0
  6  1  1  0
  6  5  2  0
  7  2  1  0
  7 25  1  0
  8 20  1  0
  8 16  2  0
  9  5  1  0
  9 10  1  0
 10 11  2  0
 10 15  1  0
 11 12  1  0
 12 13  2  0
 12 32  1  0
 13 33  1  0
 14 13  1  0
 14 34  1  0
 15 14  2  0
 15 35  1  0
 16 17  1  0
 16 36  1  0
 17 18  2  0
 17 37  1  0
 18 26  1  0
 19 18  1  0
 19 38  1  0
 20 19  2  0
 20 39  1  0
 21 11  1  0
 21 40  1  0
 21 41  1  0
 21 42  1  0
 22  9  2  0
 24 26  2  0
 26 23  2  0
 26  4  1  0
M  END
>  <lm5_entropy_jk>  (1) 
31.418959509749985

>  <number_of_rotatable_bonds>  (1) 
5

>  <IC50_NM>  (1) 
4800

>  <charge>  (1) 
0

$$$$
