3SQQ
     RDKit          3D

 42 44  0  0  0  0  0  0  0  0999 V2000
   65.7261  154.3898  -50.5457 N   0  0  0  0  0  0  0  0  0  0  0  0
   64.2594  154.8236  -48.8065 N   0  0  0  0  0  0  0  0  0  0  0  0
   67.3606  153.6815  -52.0604 N   0  0  0  0  0  0  0  0  0  0  0  0
   61.5209  153.0925  -43.0088 N   0  0  0  0  0  0  0  0  0  0  0  0
   67.2952  152.8024  -49.8148 C   0  0  0  0  0  0  0  0  0  0  0  0
   66.8146  153.6112  -50.8482 C   0  0  0  0  0  0  0  0  0  0  0  0
   65.3246  154.1679  -49.3123 C   0  0  0  0  0  0  0  0  0  0  0  0
   63.5319  154.5720  -47.6381 C   0  0  0  0  0  0  0  0  0  0  0  0
   68.3212  151.8196  -49.9836 C   0  0  0  0  0  0  0  0  0  0  0  0
   68.6189  150.8147  -48.9078 C   0  0  0  0  0  0  0  0  0  0  0  0
   69.9405  150.4850  -48.5880 C   0  0  0  0  0  0  0  0  0  0  0  0
   70.1560  149.5014  -47.6270 C   0  0  0  0  0  0  0  0  0  0  0  0
   69.1116  148.8260  -47.0223 C   0  0  0  0  0  0  0  0  0  0  0  0
   67.8041  149.1344  -47.3626 C   0  0  0  0  0  0  0  0  0  0  0  0
   67.5686  150.1267  -48.2983 C   0  0  0  0  0  0  0  0  0  0  0  0
   63.5369  153.3508  -46.9583 C   0  0  0  0  0  0  0  0  0  0  0  0
   62.7353  153.1810  -45.8449 C   0  0  0  0  0  0  0  0  0  0  0  0
   61.9447  154.2333  -45.4003 C   0  0  0  0  0  0  0  0  0  0  0  0
   61.9074  155.4393  -46.0802 C   0  0  0  0  0  0  0  0  0  0  0  0
   62.7068  155.6051  -47.1914 C   0  0  0  0  0  0  0  0  0  0  0  0
   71.1321  151.1396  -49.2321 C   0  0  0  0  0  0  0  0  0  0  0  0
   68.9598  151.7774  -51.0417 O   0  0  0  0  0  0  0  0  0  0  0  0
   60.3449  155.1970  -43.5562 O   0  0  0  0  0  0  0  0  0  0  0  0
   59.7212  153.1413  -44.7508 O   0  0  0  0  0  0  0  0  0  0  0  0
   66.2987  153.0509  -48.4049 S   0  0  0  0  0  0  0  0  0  0  0  0
   60.7624  153.9399  -44.1430 S   0  0  0  0  0  0  0  0  0  0  0  0
   63.7983  155.4691  -49.4527 H   0  0  0  0  0  0  0  0  0  0  0  0
   66.9005  154.1577  -52.8242 H   0  0  0  0  0  0  0  0  0  0  0  0
   68.0746  152.9911  -52.2391 H   0  0  0  0  0  0  0  0  0  0  0  0
   61.4959  152.0756  -43.1741 H   0  0  0  0  0  0  0  0  0  0  0  0
   61.3155  153.4112  -42.0773 H   0  0  0  0  0  0  0  0  0  0  0  0
   71.1790  149.2374  -47.3960 H   0  0  0  0  0  0  0  0  0  0  0  0
   69.3002  148.0325  -46.3158 H   0  0  0  0  0  0  0  0  0  0  0  0
   66.9779  148.6034  -46.9166 H   0  0  0  0  0  0  0  0  0  0  0  0
   66.5494  150.3388  -48.5804 H   0  0  0  0  0  0  0  0  0  0  0  0
   64.1039  152.5141  -47.3277 H   0  0  0  0  0  0  0  0  0  0  0  0
   62.6926  152.2254  -45.3412 H   0  0  0  0  0  0  0  0  0  0  0  0
   61.2326  156.2212  -45.7688 H   0  0  0  0  0  0  0  0  0  0  0  0
   62.6481  156.5089  -47.7718 H   0  0  0  0  0  0  0  0  0  0  0  0
   71.0110  151.2122  -50.3052 H   0  0  0  0  0  0  0  0  0  0  0  0
   72.0138  150.5452  -49.0166 H   0  0  0  0  0  0  0  0  0  0  0  0
   71.2731  152.1495  -48.8500 H   0  0  0  0  0  0  0  0  0  0  0  0
  1  7  2  0
  2  8  1  0
  2 27  1  0
  3  6  1  0
  3 28  1  0
  3 29  1  0
  4 30  1  0
  4 31  1  0
  5 25  1  0
  6  1  1  0
  6  5  2  0
  7  2  1  0
  7 25  1  0
  8 20  1  0
  8 16  2  0
  9  5  1  0
  9 10  1  0
 10 11  2  0
 10 15  1  0
 11 12  1  0
 12 13  2  0
 12 32  1  0
 13 33  1  0
 14 13  1  0
 14 34  1  0
 15 14  2  0
 15 35  1  0
 16 17  1  0
 16 36  1  0
 17 18  2  0
 17 37  1  0
 18 26  1  0
 19 18  1  0
 19 38  1  0
 20 19  2  0
 20 39  1  0
 21 11  1  0
 21 40  1  0
 21 41  1  0
 21 42  1  0
 22  9  2  0
 24 26  2  0
 26 23  2  0
 26  4  1  0
M  END
>  <lm5_entropy_jk>  (1) 
31.418959509749985

>  <number_of_rotatable_bonds>  (1) 
5

>  <IC50_NM>  (1) 
4800

>  <charge>  (1) 
0

$$$$
