3R8U
     RDKit          3D

 37 39  0  0  1  0  0  0  0  0999 V2000
   63.8013  155.2037  -49.3166 N   0  0  0  0  0  0  0  0  0  0  0  0
   65.4703  154.4168  -50.7425 N   0  0  0  0  0  0  0  0  0  0  0  0
   67.2511  153.3705  -51.8240 N   0  0  0  0  0  0  0  0  0  0  0  0
   62.6110  153.3844  -46.4864 C   0  0  0  0  0  0  0  0  0  0  0  0
   62.4564  153.9987  -47.6467 C   0  0  0  0  0  0  0  0  0  0  0  0
   63.1506  155.2740  -48.0229 C   0  0  0  0  0  0  0  0  0  0  0  0
   64.8706  154.4546  -49.5674 C   0  0  0  0  0  0  0  0  0  0  0  0
   66.8447  153.0158  -49.4615 C   0  0  0  0  0  0  0  0  0  0  0  0
   66.5586  153.5898  -50.7068 C   0  0  0  0  0  0  0  0  0  0  0  0
   67.8466  152.0253  -49.2669 C   0  0  0  0  0  0  0  0  0  0  0  0
   67.9052  151.2498  -47.9833 C   0  0  0  0  0  0  0  0  0  0  0  0
   67.9579  151.8257  -46.7437 C   0  0  0  0  0  0  0  0  0  0  0  0
   68.0328  151.0239  -45.5771 C   0  0  0  0  0  0  0  0  0  0  0  0
   68.0127  149.6165  -45.7110 C   0  0  0  0  0  0  0  0  0  0  0  0
   67.9507  149.0464  -47.0047 C   0  0  0  0  0  0  0  0  0  0  0  0
   67.9242  149.8423  -48.1095 C   0  0  0  0  0  0  0  0  0  0  0  0
   68.1569  151.5874  -44.2829 C   0  0  0  0  0  0  0  0  0  0  0  0
   68.2554  150.7827  -43.1843 C   0  0  0  0  0  0  0  0  0  0  0  0
   68.2022  149.3780  -43.3159 C   0  0  0  0  0  0  0  0  0  0  0  0
   68.0792  148.8063  -44.5481 C   0  0  0  0  0  0  0  0  0  0  0  0
   68.6303  151.7226  -50.1754 O   0  0  0  0  0  0  0  0  0  0  0  0
   65.5741  153.4457  -48.3359 S   0  0  0  0  0  0  0  0  0  0  0  0
   62.4104  156.0662  -48.1093 H   0  0  0  0  0  0  0  0  0  0  0  0
   63.8585  155.5631  -47.2441 H   0  0  0  0  0  0  0  0  0  0  0  0
   63.4380  155.8100  -50.0503 H   0  0  0  0  0  0  0  0  0  0  0  0
   67.0360  153.8732  -52.6736 H   0  0  0  0  0  0  0  0  0  0  0  0
   68.0405  152.7493  -51.7372 H   0  0  0  0  0  0  0  0  0  0  0  0
   67.9822  152.8997  -46.6286 H   0  0  0  0  0  0  0  0  0  0  0  0
   67.9378  147.9694  -47.0848 H   0  0  0  0  0  0  0  0  0  0  0  0
   67.9072  149.4136  -49.0987 H   0  0  0  0  0  0  0  0  0  0  0  0
   68.1992  152.6639  -44.1841 H   0  0  0  0  0  0  0  0  0  0  0  0
   68.3835  151.2028  -42.2006 H   0  0  0  0  0  0  0  0  0  0  0  0
   68.2704  148.7643  -42.4292 H   0  0  0  0  0  0  0  0  0  0  0  0
   68.0392  147.7331  -44.6727 H   0  0  0  0  0  0  0  0  0  0  0  0
   62.0705  152.4824  -46.2390 H   0  0  0  0  0  0  0  0  0  0  0  0
   63.2950  153.7668  -45.7380 H   0  0  0  0  0  0  0  0  0  0  0  0
   61.7962  153.6145  -48.4135 H   0  0  0  0  0  0  0  0  0  0  0  0
  1  6  1  0
  1  7  1  0
  1 25  1  0
  2  7  2  0
  2  9  1  0
  3  9  1  0
  3 26  1  0
  3 27  1  0
  4  5  2  0
  4 35  1  0
  4 36  1  0
  5  6  1  0
  5 37  1  0
  6 23  1  0
  6 24  1  0
  7 22  1  0
  8  9  2  0
  8 22  1  0
 10  8  1  0
 10 11  1  0
 10 21  2  0
 11 12  2  0
 11 16  1  0
 12 13  1  0
 12 28  1  0
 13 14  2  0
 13 17  1  0
 14 15  1  0
 14 20  1  0
 15 16  2  0
 15 29  1  0
 16 30  1  0
 17 18  2  0
 17 31  1  0
 18 19  1  0
 18 32  1  0
 19 20  2  0
 19 33  1  0
 20 34  1  0
M  END
>  <lm5_entropy_jk>  (1) 
31.97375871552738

>  <number_of_rotatable_bonds>  (1) 
5

>  <IC50_NM>  (1) 
5000

>  <charge>  (1) 
0

$$$$
