3QTW
     RDKit          3D

 33 35  0  0  1  0  0  0  0  0999 V2000
   65.7282  154.2869  -50.5395 N   0  0  0  0  0  0  0  0  0  0  0  0
   67.4711  153.6699  -51.9734 N   0  0  0  0  0  0  0  0  0  0  0  0
   70.5499  149.7628  -47.6145 N   0  0  0  0  0  0  0  0  0  0  0  0
   64.1394  154.5970  -48.8811 N   0  0  0  0  0  0  0  0  0  0  0  0
   66.8818  153.5925  -50.7836 C   0  0  0  0  0  0  0  0  0  0  0  0
   67.3697  152.8266  -49.7206 C   0  0  0  0  0  0  0  0  0  0  0  0
   68.5578  152.0421  -49.7875 C   0  0  0  0  0  0  0  0  0  0  0  0
   68.8544  150.9782  -48.7705 C   0  0  0  0  0  0  0  0  0  0  0  0
   70.1790  150.7241  -48.4583 C   0  0  0  0  0  0  0  0  0  0  0  0
   69.6030  148.9841  -47.0873 C   0  0  0  0  0  0  0  0  0  0  0  0
   68.2528  149.1518  -47.3462 C   0  0  0  0  0  0  0  0  0  0  0  0
   67.8767  150.1684  -48.2021 C   0  0  0  0  0  0  0  0  0  0  0  0
   65.2733  154.0335  -49.3275 C   0  0  0  0  0  0  0  0  0  0  0  0
   63.4005  154.3348  -47.7116 C   0  0  0  0  0  0  0  0  0  0  0  0
   62.4694  155.3038  -47.3368 C   0  0  0  0  0  0  0  0  0  0  0  0
   61.6728  155.1129  -46.2232 C   0  0  0  0  0  0  0  0  0  0  0  0
   61.7962  153.9639  -45.4552 C   0  0  0  0  0  0  0  0  0  0  0  0
   62.7134  152.9992  -45.8325 C   0  0  0  0  0  0  0  0  0  0  0  0
   63.5030  153.1653  -46.9611 C   0  0  0  0  0  0  0  0  0  0  0  0
   69.3764  152.2038  -50.6970 O   0  0  0  0  0  0  0  0  0  0  0  0
   66.2784  152.9774  -48.3719 S   0  0  0  0  0  0  0  0  0  0  0  0
   67.0385  154.1314  -52.7615 H   0  0  0  0  0  0  0  0  0  0  0  0
   68.2982  153.1062  -52.0899 H   0  0  0  0  0  0  0  0  0  0  0  0
   70.9560  151.3232  -48.9132 H   0  0  0  0  0  0  0  0  0  0  0  0
   69.9345  148.1831  -46.4405 H   0  0  0  0  0  0  0  0  0  0  0  0
   67.5215  148.4891  -46.9131 H   0  0  0  0  0  0  0  0  0  0  0  0
   66.8341  150.2971  -48.4543 H   0  0  0  0  0  0  0  0  0  0  0  0
   63.6768  155.2360  -49.5332 H   0  0  0  0  0  0  0  0  0  0  0  0
   62.3429  156.1753  -47.9583 H   0  0  0  0  0  0  0  0  0  0  0  0
   60.9289  155.8573  -45.9821 H   0  0  0  0  0  0  0  0  0  0  0  0
   61.1632  153.7990  -44.5963 H   0  0  0  0  0  0  0  0  0  0  0  0
   62.7938  152.0886  -45.2601 H   0  0  0  0  0  0  0  0  0  0  0  0
   64.1559  152.3670  -47.2653 H   0  0  0  0  0  0  0  0  0  0  0  0
  1  5  1  0
  1 13  2  0
  2  5  1  0
  2 22  1  0
  2 23  1  0
  3  9  2  0
  3 10  1  0
  4 13  1  0
  4 14  1  0
  4 28  1  0
  5  6  2  0
  6 21  1  0
  7  6  1  0
  7  8  1  0
  7 20  2  0
  8  9  1  0
  8 12  2  0
  9 24  1  0
 10 11  2  0
 10 25  1  0
 11 12  1  0
 11 26  1  0
 12 27  1  0
 13 21  1  0
 14 15  2  0
 14 19  1  0
 15 16  1  0
 15 29  1  0
 16 17  2  0
 16 30  1  0
 17 18  1  0
 17 31  1  0
 18 19  2  0
 18 32  1  0
 19 33  1  0
M  END
>  <lm5_entropy_jk>  (1) 
20.66385753466715

>  <number_of_rotatable_bonds>  (1) 
4

>  <IC50_NM>  (1) 
650

>  <charge>  (1) 
0

$$$$
