3RNI
     RDKit          3D

 39 41  0  0  0  0  0  0  0  0999 V2000
   65.7039  154.4250  -50.2351 N   0  0  0  0  0  0  0  0  0  0  0  0
   64.2590  154.8245  -48.4382 N   0  0  0  0  0  0  0  0  0  0  0  0
   67.2972  153.6643  -51.8063 N   0  0  0  0  0  0  0  0  0  0  0  0
   61.0110  157.7849  -45.9793 N   0  0  0  0  0  0  0  0  0  0  0  0
   67.2966  152.8476  -49.5432 C   0  0  0  0  0  0  0  0  0  0  0  0
   66.7863  153.6471  -50.5652 C   0  0  0  0  0  0  0  0  0  0  0  0
   65.3202  154.1679  -49.0026 C   0  0  0  0  0  0  0  0  0  0  0  0
   68.3755  151.9071  -49.6353 C   0  0  0  0  0  0  0  0  0  0  0  0
   63.6369  154.6086  -47.1838 C   0  0  0  0  0  0  0  0  0  0  0  0
   68.5796  150.9149  -48.5124 C   0  0  0  0  0  0  0  0  0  0  0  0
   62.8723  155.6517  -46.6542 C   0  0  0  0  0  0  0  0  0  0  0  0
   62.2857  155.5259  -45.4052 C   0  0  0  0  0  0  0  0  0  0  0  0
   62.4418  154.3724  -44.6451 C   0  0  0  0  0  0  0  0  0  0  0  0
   63.1536  153.3254  -45.1997 C   0  0  0  0  0  0  0  0  0  0  0  0
   63.7257  153.4204  -46.4616 C   0  0  0  0  0  0  0  0  0  0  0  0
   67.5356  150.0953  -48.0908 C   0  0  0  0  0  0  0  0  0  0  0  0
   67.7355  149.1620  -47.0873 C   0  0  0  0  0  0  0  0  0  0  0  0
   68.9838  149.0268  -46.5017 C   0  0  0  0  0  0  0  0  0  0  0  0
   70.0320  149.8327  -46.9233 C   0  0  0  0  0  0  0  0  0  0  0  0
   69.8340  150.7728  -47.9266 C   0  0  0  0  0  0  0  0  0  0  0  0
   69.1435  151.8928  -50.5958 O   0  0  0  0  0  0  0  0  0  0  0  0
   60.2622  156.3597  -43.9673 O   0  0  0  0  0  0  0  0  0  0  0  0
   62.3335  157.7038  -43.9282 O   0  0  0  0  0  0  0  0  0  0  0  0
   66.2896  153.0368  -48.1364 S   0  0  0  0  0  0  0  0  0  0  0  0
   61.4166  156.8829  -44.6598 S   0  0  0  0  0  0  0  0  0  0  0  0
   63.6864  155.3308  -49.1110 H   0  0  0  0  0  0  0  0  0  0  0  0
   66.9112  154.2195  -52.5643 H   0  0  0  0  0  0  0  0  0  0  0  0
   68.0846  153.0727  -52.0034 H   0  0  0  0  0  0  0  0  0  0  0  0
   60.7411  158.6968  -45.6278 H   0  0  0  0  0  0  0  0  0  0  0  0
   60.2457  157.3457  -46.5040 H   0  0  0  0  0  0  0  0  0  0  0  0
   62.7381  156.5576  -47.2228 H   0  0  0  0  0  0  0  0  0  0  0  0
   62.0274  154.2852  -43.6515 H   0  0  0  0  0  0  0  0  0  0  0  0
   63.2666  152.4033  -44.6443 H   0  0  0  0  0  0  0  0  0  0  0  0
   64.2132  152.5501  -46.8678 H   0  0  0  0  0  0  0  0  0  0  0  0
   66.5649  150.1625  -48.5591 H   0  0  0  0  0  0  0  0  0  0  0  0
   66.9150  148.5373  -46.7605 H   0  0  0  0  0  0  0  0  0  0  0  0
   69.1271  148.2808  -45.7292 H   0  0  0  0  0  0  0  0  0  0  0  0
   70.9960  149.7193  -46.4546 H   0  0  0  0  0  0  0  0  0  0  0  0
   70.6398  151.4112  -48.2550 H   0  0  0  0  0  0  0  0  0  0  0  0
  1  7  2  0
  2  9  1  0
  2 26  1  0
  3  6  1  0
  3 27  1  0
  3 28  1  0
  4 25  1  0
  4 29  1  0
  4 30  1  0
  5 24  1  0
  6  1  1  0
  6  5  2  0
  7  2  1  0
  7 24  1  0
  8  5  1  0
  8 10  1  0
  9 11  2  0
  9 15  1  0
 10 20  1  0
 10 16  2  0
 11 12  1  0
 11 31  1  0
 12 25  1  0
 12 13  2  0
 13 32  1  0
 14 13  1  0
 14 33  1  0
 15 14  2  0
 15 34  1  0
 16 17  1  0
 16 35  1  0
 17 18  2  0
 17 36  1  0
 18 37  1  0
 19 18  1  0
 19 38  1  0
 20 19  2  0
 20 39  1  0
 21  8  2  0
 25 22  2  0
 25 23  2  0
M  END
>  <lm5_entropy_jk>  (1) 
22.397995528352578

>  <number_of_rotatable_bonds>  (1) 
5

>  <IC50_NM>  (1) 
6700

>  <charge>  (1) 
0

$$$$
