3RPV
     RDKit          3D

 41 43  0  0  0  0  0  0  0  0999 V2000
   65.5090  154.3790  -50.7607 N   0  0  0  0  0  0  0  0  0  0  0  0
   63.9308  154.8402  -49.1316 N   0  0  0  0  0  0  0  0  0  0  0  0
   67.2613  153.7105  -52.1416 N   0  0  0  0  0  0  0  0  0  0  0  0
   67.2442  148.8903  -46.3065 N   0  0  0  0  0  0  0  0  0  0  0  0
   61.2171  153.2200  -43.2396 N   0  0  0  0  0  0  0  0  0  0  0  0
   67.1221  152.9333  -49.8575 C   0  0  0  0  0  0  0  0  0  0  0  0
   66.6628  153.6661  -50.9573 C   0  0  0  0  0  0  0  0  0  0  0  0
   65.0457  154.2022  -49.5476 C   0  0  0  0  0  0  0  0  0  0  0  0
   63.1837  154.6113  -47.9722 C   0  0  0  0  0  0  0  0  0  0  0  0
   68.2919  152.1138  -49.9176 C   0  0  0  0  0  0  0  0  0  0  0  0
   68.6834  151.1422  -48.8467 C   0  0  0  0  0  0  0  0  0  0  0  0
   70.0316  150.8146  -48.7648 C   0  0  0  0  0  0  0  0  0  0  0  0
   70.4336  149.8439  -47.8647 C   0  0  0  0  0  0  0  0  0  0  0  0
   69.5163  149.1937  -47.0615 C   0  0  0  0  0  0  0  0  0  0  0  0
   68.1572  149.5130  -47.1362 C   0  0  0  0  0  0  0  0  0  0  0  0
   67.7530  150.4998  -48.0411 C   0  0  0  0  0  0  0  0  0  0  0  0
   63.1106  153.3604  -47.3537 C   0  0  0  0  0  0  0  0  0  0  0  0
   62.3153  153.1945  -46.2371 C   0  0  0  0  0  0  0  0  0  0  0  0
   61.5870  154.2698  -45.7421 C   0  0  0  0  0  0  0  0  0  0  0  0
   61.6343  155.5078  -46.3587 C   0  0  0  0  0  0  0  0  0  0  0  0
   62.4355  155.6752  -47.4710 C   0  0  0  0  0  0  0  0  0  0  0  0
   69.0259  152.1751  -50.9124 O   0  0  0  0  0  0  0  0  0  0  0  0
   59.4867  153.0232  -44.9218 O   0  0  0  0  0  0  0  0  0  0  0  0
   59.9473  155.2505  -43.9790 O   0  0  0  0  0  0  0  0  0  0  0  0
   66.0041  153.1695  -48.5317 S   0  0  0  0  0  0  0  0  0  0  0  0
   60.4488  153.9830  -44.4330 S   0  0  0  0  0  0  0  0  0  0  0  0
   63.5569  155.5603  -49.7516 H   0  0  0  0  0  0  0  0  0  0  0  0
   66.8578  154.2056  -52.9236 H   0  0  0  0  0  0  0  0  0  0  0  0
   68.0973  153.1520  -52.2191 H   0  0  0  0  0  0  0  0  0  0  0  0
   66.2809  148.9433  -46.5993 H   0  0  0  0  0  0  0  0  0  0  0  0
   67.4906  147.9335  -46.1077 H   0  0  0  0  0  0  0  0  0  0  0  0
   61.3569  152.2197  -43.4402 H   0  0  0  0  0  0  0  0  0  0  0  0
   62.0229  153.6938  -42.8613 H   0  0  0  0  0  0  0  0  0  0  0  0
   70.7323  151.2935  -49.4297 H   0  0  0  0  0  0  0  0  0  0  0  0
   71.4737  149.5541  -47.8229 H   0  0  0  0  0  0  0  0  0  0  0  0
   69.8354  148.4125  -46.3854 H   0  0  0  0  0  0  0  0  0  0  0  0
   66.7010  150.7124  -48.1367 H   0  0  0  0  0  0  0  0  0  0  0  0
   63.6221  152.5099  -47.7702 H   0  0  0  0  0  0  0  0  0  0  0  0
   62.2320  152.2263  -45.7625 H   0  0  0  0  0  0  0  0  0  0  0  0
   61.0230  156.3180  -45.9934 H   0  0  0  0  0  0  0  0  0  0  0  0
   62.4434  156.6132  -47.9995 H   0  0  0  0  0  0  0  0  0  0  0  0
  1  8  2  0
  2  9  1  0
  2 27  1  0
  3  7  1  0
  3 28  1  0
  3 29  1  0
  4 30  1  0
  4 31  1  0
  5 32  1  0
  5 33  1  0
  6 25  1  0
  7  1  1  0
  7  6  2  0
  8  2  1  0
  8 25  1  0
  9 21  1  0
  9 17  2  0
 10  6  1  0
 10 11  1  0
 11 12  2  0
 11 16  1  0
 12 13  1  0
 12 34  1  0
 13 14  2  0
 13 35  1  0
 14 36  1  0
 15 14  1  0
 15  4  1  0
 16 15  2  0
 16 37  1  0
 17 18  1  0
 17 38  1  0
 18 19  2  0
 18 39  1  0
 19 26  1  0
 20 19  1  0
 20 40  1  0
 21 20  2  0
 21 41  1  0
 22 10  2  0
 23 26  2  0
 26 24  2  0
 26  5  1  0
M  END
>  <lm5_entropy_jk>  (1) 
21.154920599914565

>  <number_of_rotatable_bonds>  (1) 
5

>  <IC50_NM>  (1) 
70

>  <charge>  (1) 
0

$$$$
