3QQK
     RDKit          3D

 31 32  0  0  0  0  0  0  0  0999 V2000
   62.9114  153.4206  -46.2623 C   0  0  0  0  0  0  0  0  0  0  0  0
   62.9770  154.0782  -47.4075 C   0  0  0  0  0  0  0  0  0  0  0  0
   63.9022  155.2428  -47.6240 C   0  0  0  0  0  0  0  0  0  0  0  0
   64.5146  155.3362  -48.9403 N   0  0  0  0  0  0  0  0  0  0  0  0
   65.4593  154.4940  -49.3972 C   0  0  0  0  0  0  0  0  0  0  0  0
   65.9133  154.5482  -50.6298 N   0  0  0  0  0  0  0  0  0  0  0  0
   66.9310  153.6517  -50.7935 C   0  0  0  0  0  0  0  0  0  0  0  0
   67.3140  152.9243  -49.6656 C   0  0  0  0  0  0  0  0  0  0  0  0
   66.2209  153.3326  -48.3597 S   0  0  0  0  0  0  0  0  0  0  0  0
   67.4900  153.5142  -51.9968 N   0  0  0  0  0  0  0  0  0  0  0  0
   68.3804  151.9749  -49.6591 C   0  0  0  0  0  0  0  0  0  0  0  0
   68.5342  150.9985  -48.5342 C   0  0  0  0  0  0  0  0  0  0  0  0
   67.4511  150.2866  -48.0330 C   0  0  0  0  0  0  0  0  0  0  0  0
   67.6432  149.3275  -47.0531 C   0  0  0  0  0  0  0  0  0  0  0  0
   68.9182  149.0797  -46.5719 C   0  0  0  0  0  0  0  0  0  0  0  0
   70.0034  149.7863  -47.0695 C   0  0  0  0  0  0  0  0  0  0  0  0
   69.8121  150.7368  -48.0574 C   0  0  0  0  0  0  0  0  0  0  0  0
   69.2028  151.9506  -50.5809 O   0  0  0  0  0  0  0  0  0  0  0  0
   62.2033  152.6209  -46.1062 H   0  0  0  0  0  0  0  0  0  0  0  0
   63.5498  153.6582  -45.4190 H   0  0  0  0  0  0  0  0  0  0  0  0
   62.3222  153.8173  -48.2301 H   0  0  0  0  0  0  0  0  0  0  0  0
   63.3574  156.1745  -47.4758 H   0  0  0  0  0  0  0  0  0  0  0  0
   64.6850  155.2252  -46.8688 H   0  0  0  0  0  0  0  0  0  0  0  0
   63.9939  155.8253  -49.6504 H   0  0  0  0  0  0  0  0  0  0  0  0
   67.2147  154.1128  -52.7538 H   0  0  0  0  0  0  0  0  0  0  0  0
   68.3151  152.9357  -52.0252 H   0  0  0  0  0  0  0  0  0  0  0  0
   66.4598  150.4418  -48.4271 H   0  0  0  0  0  0  0  0  0  0  0  0
   66.8010  148.7617  -46.6763 H   0  0  0  0  0  0  0  0  0  0  0  0
   69.0585  148.3233  -45.8128 H   0  0  0  0  0  0  0  0  0  0  0  0
   70.9912  149.5682  -46.6973 H   0  0  0  0  0  0  0  0  0  0  0  0
   70.6379  151.2801  -48.4851 H   0  0  0  0  0  0  0  0  0  0  0  0
  1  2  2  0
  1 19  1  0
  1 20  1  0
  2 21  1  0
  3  2  1  0
  3 22  1  0
  3 23  1  0
  4  3  1  0
  4 24  1  0
  5  4  1  0
  5  9  1  0
  6  5  2  0
  7  6  1  0
  7  8  2  0
  8  9  1  0
 10  7  1  0
 10 25  1  0
 10 26  1  0
 11  8  1  0
 11 12  1  0
 12 17  1  0
 12 13  2  0
 13 14  1  0
 13 27  1  0
 14 15  2  0
 14 28  1  0
 15 29  1  0
 16 15  1  0
 16 30  1  0
 17 16  2  0
 17 31  1  0
 18 11  2  0
M  END
>  <lm5_entropy_jk>  (1) 
22.397995528352578

>  <number_of_rotatable_bonds>  (1) 
5

>  <IC50_NM>  (1) 
15000

>  <charge>  (1) 
0

$$$$
