3QTQ
     RDKit          3D

 30 31  0  0  1  0  0  0  0  0999 V2000
   65.8344  154.5358  -50.6356 N   0  0  0  0  0  0  0  0  0  0  0  0
   67.3349  153.5789  -52.1698 N   0  0  0  0  0  0  0  0  0  0  0  0
   70.7333  150.2165  -47.5600 N   0  0  0  0  0  0  0  0  0  0  0  0
   64.6183  155.2731  -48.7585 N   0  0  0  0  0  0  0  0  0  0  0  0
   66.8638  153.6718  -50.9221 C   0  0  0  0  0  0  0  0  0  0  0  0
   67.3958  152.9450  -49.8493 C   0  0  0  0  0  0  0  0  0  0  0  0
   68.4656  151.9974  -49.9614 C   0  0  0  0  0  0  0  0  0  0  0  0
   68.8777  151.1402  -48.7945 C   0  0  0  0  0  0  0  0  0  0  0  0
   70.2241  151.0462  -48.4662 C   0  0  0  0  0  0  0  0  0  0  0  0
   69.8533  149.4151  -46.9402 C   0  0  0  0  0  0  0  0  0  0  0  0
   68.4900  149.4490  -47.1653 C   0  0  0  0  0  0  0  0  0  0  0  0
   67.9905  150.3289  -48.1086 C   0  0  0  0  0  0  0  0  0  0  0  0
   65.5235  154.4509  -49.3654 C   0  0  0  0  0  0  0  0  0  0  0  0
   64.1074  155.0796  -47.4050 C   0  0  0  0  0  0  0  0  0  0  0  0
   63.0782  153.9996  -47.2310 C   0  0  0  0  0  0  0  0  0  0  0  0
   62.8467  153.4030  -46.0726 C   0  0  0  0  0  0  0  0  0  0  0  0
   69.1006  151.8536  -51.0070 O   0  0  0  0  0  0  0  0  0  0  0  0
   66.4570  153.3306  -48.4235 S   0  0  0  0  0  0  0  0  0  0  0  0
   66.9717  154.1349  -52.9392 H   0  0  0  0  0  0  0  0  0  0  0  0
   68.1197  152.9775  -52.3488 H   0  0  0  0  0  0  0  0  0  0  0  0
   70.9320  151.6938  -48.9595 H   0  0  0  0  0  0  0  0  0  0  0  0
   70.2643  148.7244  -46.2175 H   0  0  0  0  0  0  0  0  0  0  0  0
   67.8274  148.7872  -46.6214 H   0  0  0  0  0  0  0  0  0  0  0  0
   66.9335  150.3469  -48.3204 H   0  0  0  0  0  0  0  0  0  0  0  0
   63.8935  155.6146  -49.3848 H   0  0  0  0  0  0  0  0  0  0  0  0
   63.6769  156.0297  -47.0895 H   0  0  0  0  0  0  0  0  0  0  0  0
   64.9411  154.8976  -46.7422 H   0  0  0  0  0  0  0  0  0  0  0  0
   62.0885  152.6452  -45.9527 H   0  0  0  0  0  0  0  0  0  0  0  0
   63.4176  153.6432  -45.1851 H   0  0  0  0  0  0  0  0  0  0  0  0
   62.4934  153.7581  -48.1087 H   0  0  0  0  0  0  0  0  0  0  0  0
  1  5  1  0
  1 13  2  0
  2  5  1  0
  2 19  1  0
  2 20  1  0
  3  9  2  0
  3 10  1  0
  4 13  1  0
  4 14  1  0
  4 25  1  0
  5  6  2  0
  6 18  1  0
  7  6  1  0
  7  8  1  0
  7 17  2  0
  8  9  1  0
  8 12  2  0
  9 21  1  0
 10 11  2  0
 10 22  1  0
 11 12  1  0
 11 23  1  0
 12 24  1  0
 13 18  1  0
 14 15  1  0
 14 26  1  0
 14 27  1  0
 15 16  2  0
 15 30  1  0
 16 28  1  0
 16 29  1  0
M  END
>  <lm5_entropy_jk>  (1) 
31.50116356131297

>  <number_of_rotatable_bonds>  (1) 
5

>  <IC50_NM>  (1) 
3100

>  <charge>  (1) 
0

$$$$
