3RK9
     RDKit          3D

 32 33  0  0  1  0  0  0  0  0999 V2000
   64.4621  155.0866  -48.5050 N   0  0  0  0  0  0  0  0  0  0  0  0
   65.7188  154.5332  -50.4307 N   0  0  0  0  0  0  0  0  0  0  0  0
   67.2165  153.6718  -52.0310 N   0  0  0  0  0  0  0  0  0  0  0  0
   70.7515  150.1962  -47.6069 N   0  0  0  0  0  0  0  0  0  0  0  0
   62.9422  155.8173  -46.7270 C   0  0  0  0  0  0  0  0  0  0  0  0
   63.8450  154.6899  -47.2214 C   0  0  0  0  0  0  0  0  0  0  0  0
   63.0677  153.3796  -47.2942 C   0  0  0  0  0  0  0  0  0  0  0  0
   65.4077  154.3568  -49.1665 C   0  0  0  0  0  0  0  0  0  0  0  0
   66.7662  153.7118  -50.7710 C   0  0  0  0  0  0  0  0  0  0  0  0
   67.3318  152.9475  -49.7425 C   0  0  0  0  0  0  0  0  0  0  0  0
   68.4306  152.0419  -49.9037 C   0  0  0  0  0  0  0  0  0  0  0  0
   68.8685  151.1389  -48.7803 C   0  0  0  0  0  0  0  0  0  0  0  0
   68.0030  150.2845  -48.1204 C   0  0  0  0  0  0  0  0  0  0  0  0
   68.5287  149.3711  -47.2245 C   0  0  0  0  0  0  0  0  0  0  0  0
   69.8954  149.3498  -47.0168 C   0  0  0  0  0  0  0  0  0  0  0  0
   70.2188  151.0536  -48.4704 C   0  0  0  0  0  0  0  0  0  0  0  0
   69.0689  151.9721  -50.9518 O   0  0  0  0  0  0  0  0  0  0  0  0
   66.3974  153.2231  -48.2917 S   0  0  0  0  0  0  0  0  0  0  0  0
   63.4799  156.7485  -46.5880 H   0  0  0  0  0  0  0  0  0  0  0  0
   62.4963  155.5451  -45.7720 H   0  0  0  0  0  0  0  0  0  0  0  0
   62.1166  155.9889  -47.4182 H   0  0  0  0  0  0  0  0  0  0  0  0
   64.6534  154.5726  -46.5092 H   0  0  0  0  0  0  0  0  0  0  0  0
   62.3934  153.3842  -48.1482 H   0  0  0  0  0  0  0  0  0  0  0  0
   62.4720  153.2289  -46.3943 H   0  0  0  0  0  0  0  0  0  0  0  0
   63.7417  152.5350  -47.3822 H   0  0  0  0  0  0  0  0  0  0  0  0
   63.7606  155.4690  -49.1377 H   0  0  0  0  0  0  0  0  0  0  0  0
   66.8402  154.2325  -52.7877 H   0  0  0  0  0  0  0  0  0  0  0  0
   68.0075  153.0849  -52.2359 H   0  0  0  0  0  0  0  0  0  0  0  0
   66.9424  150.2941  -48.3202 H   0  0  0  0  0  0  0  0  0  0  0  0
   67.8857  148.6744  -46.7039 H   0  0  0  0  0  0  0  0  0  0  0  0
   70.3288  148.6295  -46.3352 H   0  0  0  0  0  0  0  0  0  0  0  0
   70.9108  151.7326  -48.9437 H   0  0  0  0  0  0  0  0  0  0  0  0
  1  6  1  0
  1  8  1  0
  1 26  1  0
  2  8  2  0
  2  9  1  0
  3  9  1  0
  3 27  1  0
  3 28  1  0
  4 15  2  0
  4 16  1  0
  5  6  1  0
  5 19  1  0
  5 20  1  0
  5 21  1  0
  6  7  1  0
  6 22  1  0
  7 23  1  0
  7 24  1  0
  7 25  1  0
  8 18  1  0
  9 10  2  0
 10 18  1  0
 11 10  1  0
 11 12  1  0
 11 17  2  0
 12 13  1  0
 12 16  2  0
 13 14  2  0
 13 29  1  0
 14 15  1  0
 14 30  1  0
 15 31  1  0
 16 32  1  0
M  END
>  <lm5_entropy_jk>  (1) 
34.96174716553827

>  <number_of_rotatable_bonds>  (1) 
4

>  <IC50_NM>  (1) 
520

>  <charge>  (1) 
0

$$$$
