3RK7
     RDKit          3D

 37 39  0  0  1  0  0  0  0  0999 V2000
   64.1611  154.6311  -48.9377 N   0  0  0  0  0  0  0  0  0  0  0  0
   65.7813  154.2281  -50.5449 N   0  0  0  0  0  0  0  0  0  0  0  0
   67.5635  153.5502  -51.9017 N   0  0  0  0  0  0  0  0  0  0  0  0
   70.4242  149.7399  -47.2793 N   0  0  0  0  0  0  0  0  0  0  0  0
   60.8597  153.2169  -43.5381 N   0  0  0  0  0  0  0  0  0  0  0  0
   63.4071  154.4587  -47.7667 C   0  0  0  0  0  0  0  0  0  0  0  0
   65.2777  154.0049  -49.3469 C   0  0  0  0  0  0  0  0  0  0  0  0
   66.9233  153.4959  -50.7351 C   0  0  0  0  0  0  0  0  0  0  0  0
   67.3434  152.7278  -49.6431 C   0  0  0  0  0  0  0  0  0  0  0  0
   68.5238  151.9253  -49.6384 C   0  0  0  0  0  0  0  0  0  0  0  0
   68.7759  150.8989  -48.5665 C   0  0  0  0  0  0  0  0  0  0  0  0
   67.7727  150.1218  -47.9960 C   0  0  0  0  0  0  0  0  0  0  0  0
   68.1105  149.1620  -47.0619 C   0  0  0  0  0  0  0  0  0  0  0  0
   69.4476  149.0096  -46.7369 C   0  0  0  0  0  0  0  0  0  0  0  0
   70.0866  150.6536  -48.1915 C   0  0  0  0  0  0  0  0  0  0  0  0
   62.5900  155.5300  -47.4041 C   0  0  0  0  0  0  0  0  0  0  0  0
   61.7728  155.4441  -46.3007 C   0  0  0  0  0  0  0  0  0  0  0  0
   61.7552  154.2976  -45.5153 C   0  0  0  0  0  0  0  0  0  0  0  0
   62.5516  153.2185  -45.8884 C   0  0  0  0  0  0  0  0  0  0  0  0
   63.3687  153.2885  -47.0083 C   0  0  0  0  0  0  0  0  0  0  0  0
   60.8424  154.2968  -44.3308 C   0  0  0  0  0  0  0  0  0  0  0  0
   69.3764  152.0502  -50.5228 O   0  0  0  0  0  0  0  0  0  0  0  0
   60.1308  155.2782  -44.0847 O   0  0  0  0  0  0  0  0  0  0  0  0
   66.1919  152.9221  -48.3460 S   0  0  0  0  0  0  0  0  0  0  0  0
   63.7600  155.3110  -49.5876 H   0  0  0  0  0  0  0  0  0  0  0  0
   67.1627  154.0136  -52.7058 H   0  0  0  0  0  0  0  0  0  0  0  0
   68.3721  152.9538  -51.9853 H   0  0  0  0  0  0  0  0  0  0  0  0
   66.7432  150.2341  -48.3027 H   0  0  0  0  0  0  0  0  0  0  0  0
   67.3573  148.5299  -46.6199 H   0  0  0  0  0  0  0  0  0  0  0  0
   69.7453  148.2504  -46.0264 H   0  0  0  0  0  0  0  0  0  0  0  0
   70.8811  151.2239  -48.6528 H   0  0  0  0  0  0  0  0  0  0  0  0
   62.5572  156.3969  -48.0405 H   0  0  0  0  0  0  0  0  0  0  0  0
   61.1063  156.2518  -46.0501 H   0  0  0  0  0  0  0  0  0  0  0  0
   62.5121  152.2925  -45.3342 H   0  0  0  0  0  0  0  0  0  0  0  0
   63.9197  152.4144  -47.3110 H   0  0  0  0  0  0  0  0  0  0  0  0
   61.2475  152.3131  -43.7990 H   0  0  0  0  0  0  0  0  0  0  0  0
   60.2243  153.2167  -42.7622 H   0  0  0  0  0  0  0  0  0  0  0  0
  1  6  1  0
  1  7  1  0
  1 25  1  0
  2  7  2  0
  2  8  1  0
  3  8  1  0
  3 26  1  0
  3 27  1  0
  4 14  2  0
  4 15  1  0
  5 21  1  0
  5 36  1  0
  5 37  1  0
  6 16  2  0
  6 20  1  0
  7 24  1  0
  8  9  2  0
  9 24  1  0
 10  9  1  0
 10 11  1  0
 10 22  2  0
 11 12  1  0
 11 15  2  0
 12 13  2  0
 12 28  1  0
 13 14  1  0
 13 29  1  0
 14 30  1  0
 15 31  1  0
 16 17  1  0
 16 32  1  0
 17 18  2  0
 17 33  1  0
 18 19  1  0
 18 21  1  0
 19 20  2  0
 19 34  1  0
 20 35  1  0
 21 23  2  0
M  END
>  <lm5_entropy_jk>  (1) 
19.089102203703476

>  <number_of_rotatable_bonds>  (1) 
5

>  <IC50_NM>  (1) 
200

>  <charge>  (1) 
0

$$$$
