3RMF
     RDKit          3D

 45 48  0  0  0  0  0  0  0  0999 V2000
   65.8823  154.4968  -50.3445 N   0  0  0  0  0  0  0  0  0  0  0  0
   64.4963  155.0570  -48.5726 N   0  0  0  0  0  0  0  0  0  0  0  0
   67.3559  153.5734  -51.8965 N   0  0  0  0  0  0  0  0  0  0  0  0
   61.6701  153.1689  -42.9099 N   0  0  0  0  0  0  0  0  0  0  0  0
   67.3846  152.8441  -49.6034 C   0  0  0  0  0  0  0  0  0  0  0  0
   66.9027  153.6423  -50.6519 C   0  0  0  0  0  0  0  0  0  0  0  0
   65.5150  154.3359  -49.0886 C   0  0  0  0  0  0  0  0  0  0  0  0
   63.6902  154.7552  -47.4637 C   0  0  0  0  0  0  0  0  0  0  0  0
   68.3085  151.7703  -49.7571 C   0  0  0  0  0  0  0  0  0  0  0  0
   68.6653  150.8981  -48.5863 C   0  0  0  0  0  0  0  0  0  0  0  0
   70.0102  150.4606  -48.5098 C   0  0  0  0  0  0  0  0  0  0  0  0
   70.4236  149.6839  -47.4709 C   0  0  0  0  0  0  0  0  0  0  0  0
   69.5328  149.2822  -46.4496 C   0  0  0  0  0  0  0  0  0  0  0  0
   68.1791  149.6692  -46.5426 C   0  0  0  0  0  0  0  0  0  0  0  0
   67.7711  150.4750  -47.6350 C   0  0  0  0  0  0  0  0  0  0  0  0
   62.9269  155.7864  -46.9208 C   0  0  0  0  0  0  0  0  0  0  0  0
   62.0745  155.5455  -45.8608 C   0  0  0  0  0  0  0  0  0  0  0  0
   62.0146  154.2687  -45.3255 C   0  0  0  0  0  0  0  0  0  0  0  0
   62.7647  153.2300  -45.8571 C   0  0  0  0  0  0  0  0  0  0  0  0
   63.5947  153.4709  -46.9318 C   0  0  0  0  0  0  0  0  0  0  0  0
   69.9550  148.4793  -45.3597 C   0  0  0  0  0  0  0  0  0  0  0  0
   69.0646  148.1081  -44.3971 C   0  0  0  0  0  0  0  0  0  0  0  0
   67.7110  148.5017  -44.4835 C   0  0  0  0  0  0  0  0  0  0  0  0
   67.2716  149.2510  -45.5350 C   0  0  0  0  0  0  0  0  0  0  0  0
   68.8590  151.5480  -50.8456 O   0  0  0  0  0  0  0  0  0  0  0  0
   59.9007  152.9591  -44.6817 O   0  0  0  0  0  0  0  0  0  0  0  0
   60.2841  155.1252  -43.5567 O   0  0  0  0  0  0  0  0  0  0  0  0
   66.4663  153.2202  -48.1740 S   0  0  0  0  0  0  0  0  0  0  0  0
   60.8329  153.8939  -44.0877 S   0  0  0  0  0  0  0  0  0  0  0  0
   64.0402  155.6643  -49.2456 H   0  0  0  0  0  0  0  0  0  0  0  0
   66.9956  154.1639  -52.6294 H   0  0  0  0  0  0  0  0  0  0  0  0
   68.0889  152.8996  -52.0562 H   0  0  0  0  0  0  0  0  0  0  0  0
   61.7486  152.1538  -43.0962 H   0  0  0  0  0  0  0  0  0  0  0  0
   61.2490  153.3980  -42.0193 H   0  0  0  0  0  0  0  0  0  0  0  0
   70.6895  150.7365  -49.3030 H   0  0  0  0  0  0  0  0  0  0  0  0
   71.4351  149.3178  -47.4420 H   0  0  0  0  0  0  0  0  0  0  0  0
   66.7220  150.7237  -47.7002 H   0  0  0  0  0  0  0  0  0  0  0  0
   62.9878  156.7731  -47.3533 H   0  0  0  0  0  0  0  0  0  0  0  0
   61.4473  156.3235  -45.4537 H   0  0  0  0  0  0  0  0  0  0  0  0
   62.6775  152.2339  -45.4429 H   0  0  0  0  0  0  0  0  0  0  0  0
   64.1295  152.6508  -47.3756 H   0  0  0  0  0  0  0  0  0  0  0  0
   70.9802  148.1373  -45.3328 H   0  0  0  0  0  0  0  0  0  0  0  0
   69.3714  147.4955  -43.5595 H   0  0  0  0  0  0  0  0  0  0  0  0
   67.0241  148.1842  -43.7127 H   0  0  0  0  0  0  0  0  0  0  0  0
   66.2266  149.5143  -45.6198 H   0  0  0  0  0  0  0  0  0  0  0  0
  1  7  2  0
  2  8  1  0
  2 30  1  0
  3  6  1  0
  3 31  1  0
  3 32  1  0
  4 33  1  0
  4 34  1  0
  5 28  1  0
  6  1  1  0
  6  5  2  0
  7  2  1  0
  7 28  1  0
  8 16  2  0
  8 20  1  0
  9  5  1  0
  9 10  1  0
 10 11  2  0
 10 15  1  0
 11 12  1  0
 11 35  1  0
 12 13  2  0
 12 36  1  0
 13 21  1  0
 14 13  1  0
 14 24  1  0
 15 14  2  0
 15 37  1  0
 16 17  1  0
 16 38  1  0
 17 18  2  0
 17 39  1  0
 18 29  1  0
 19 18  1  0
 19 40  1  0
 20 19  2  0
 20 41  1  0
 21 22  2  0
 21 42  1  0
 22 43  1  0
 23 22  1  0
 23 44  1  0
 24 23  2  0
 24 45  1  0
 25  9  2  0
 26 29  2  0
 29 27  2  0
 29  4  1  0
M  END
>  <lm5_entropy_jk>  (1) 
22.397995528352578

>  <number_of_rotatable_bonds>  (1) 
5

>  <IC50_NM>  (1) 
82000

>  <charge>  (1) 
0

$$$$
