3RMF
     RDKit          3D

 45 48  0  0  0  0  0  0  0  0999 V2000
   65.8781  154.4936  -50.3568 N   0  0  0  0  0  0  0  0  0  0  0  0
   64.4989  155.0609  -48.5831 N   0  0  0  0  0  0  0  0  0  0  0  0
   67.3683  153.5786  -51.8991 N   0  0  0  0  0  0  0  0  0  0  0  0
   61.6540  153.1897  -42.9187 N   0  0  0  0  0  0  0  0  0  0  0  0
   67.3924  152.8499  -49.6020 C   0  0  0  0  0  0  0  0  0  0  0  0
   66.9072  153.6436  -50.6560 C   0  0  0  0  0  0  0  0  0  0  0  0
   65.5162  154.3378  -49.0983 C   0  0  0  0  0  0  0  0  0  0  0  0
   63.6886  154.7605  -47.4759 C   0  0  0  0  0  0  0  0  0  0  0  0
   68.3161  151.7753  -49.7565 C   0  0  0  0  0  0  0  0  0  0  0  0
   68.6735  150.9016  -48.5876 C   0  0  0  0  0  0  0  0  0  0  0  0
   70.0164  150.4635  -48.5108 C   0  0  0  0  0  0  0  0  0  0  0  0
   70.4298  149.6894  -47.4705 C   0  0  0  0  0  0  0  0  0  0  0  0
   69.5388  149.2848  -46.4510 C   0  0  0  0  0  0  0  0  0  0  0  0
   68.1855  149.6689  -46.5472 C   0  0  0  0  0  0  0  0  0  0  0  0
   67.7806  150.4757  -47.6377 C   0  0  0  0  0  0  0  0  0  0  0  0
   62.9245  155.7932  -46.9378 C   0  0  0  0  0  0  0  0  0  0  0  0
   62.0720  155.5574  -45.8774 C   0  0  0  0  0  0  0  0  0  0  0  0
   62.0078  154.2805  -45.3417 C   0  0  0  0  0  0  0  0  0  0  0  0
   62.7578  153.2399  -45.8679 C   0  0  0  0  0  0  0  0  0  0  0  0
   63.5907  153.4780  -46.9403 C   0  0  0  0  0  0  0  0  0  0  0  0
   69.9588  148.4846  -45.3579 C   0  0  0  0  0  0  0  0  0  0  0  0
   69.0658  148.1119  -44.3983 C   0  0  0  0  0  0  0  0  0  0  0  0
   67.7115  148.5006  -44.4900 C   0  0  0  0  0  0  0  0  0  0  0  0
   67.2753  149.2461  -45.5447 C   0  0  0  0  0  0  0  0  0  0  0  0
   68.8639  151.5558  -50.8471 O   0  0  0  0  0  0  0  0  0  0  0  0
   59.8923  152.9719  -44.6988 O   0  0  0  0  0  0  0  0  0  0  0  0
   60.2726  155.1465  -43.5880 O   0  0  0  0  0  0  0  0  0  0  0  0
   66.4693  153.2237  -48.1744 S   0  0  0  0  0  0  0  0  0  0  0  0
   60.8221  153.9098  -44.1056 S   0  0  0  0  0  0  0  0  0  0  0  0
   64.0460  155.6626  -49.2632 H   0  0  0  0  0  0  0  0  0  0  0  0
   67.0063  154.1625  -52.6385 H   0  0  0  0  0  0  0  0  0  0  0  0
   68.1034  152.9053  -52.0560 H   0  0  0  0  0  0  0  0  0  0  0  0
   61.7399  152.1745  -43.1004 H   0  0  0  0  0  0  0  0  0  0  0  0
   61.2364  153.4188  -42.0259 H   0  0  0  0  0  0  0  0  0  0  0  0
   70.6968  150.7386  -49.3020 H   0  0  0  0  0  0  0  0  0  0  0  0
   71.4437  149.3310  -47.4401 H   0  0  0  0  0  0  0  0  0  0  0  0
   66.7344  150.7280  -47.6987 H   0  0  0  0  0  0  0  0  0  0  0  0
   62.9840  156.7768  -47.3759 H   0  0  0  0  0  0  0  0  0  0  0  0
   61.4514  156.3421  -45.4728 H   0  0  0  0  0  0  0  0  0  0  0  0
   62.6678  152.2459  -45.4487 H   0  0  0  0  0  0  0  0  0  0  0  0
   64.1239  152.6521  -47.3725 H   0  0  0  0  0  0  0  0  0  0  0  0
   70.9839  148.1424  -45.3239 H   0  0  0  0  0  0  0  0  0  0  0  0
   69.3723  147.4984  -43.5610 H   0  0  0  0  0  0  0  0  0  0  0  0
   67.0252  148.1781  -43.7207 H   0  0  0  0  0  0  0  0  0  0  0  0
   66.2297  149.4996  -45.6338 H   0  0  0  0  0  0  0  0  0  0  0  0
  1  7  2  0
  2  8  1  0
  2 30  1  0
  3  6  1  0
  3 31  1  0
  3 32  1  0
  4 33  1  0
  4 34  1  0
  5 28  1  0
  6  1  1  0
  6  5  2  0
  7  2  1  0
  7 28  1  0
  8 16  2  0
  8 20  1  0
  9  5  1  0
  9 10  1  0
 10 11  2  0
 10 15  1  0
 11 12  1  0
 11 35  1  0
 12 13  2  0
 12 36  1  0
 13 21  1  0
 14 13  1  0
 14 24  1  0
 15 14  2  0
 15 37  1  0
 16 17  1  0
 16 38  1  0
 17 18  2  0
 17 39  1  0
 18 29  1  0
 19 18  1  0
 19 40  1  0
 20 19  2  0
 20 41  1  0
 21 22  2  0
 21 42  1  0
 22 43  1  0
 23 22  1  0
 23 44  1  0
 24 23  2  0
 24 45  1  0
 25  9  2  0
 26 29  2  0
 29 27  2  0
 29  4  1  0
M  END
>  <lm5_entropy_jk>  (1) 
22.397995528352578

>  <number_of_rotatable_bonds>  (1) 
5

>  <IC50_NM>  (1) 
82000

>  <charge>  (1) 
0

$$$$
