3S0O
     RDKit          3D

 30 31  0  0  1  0  0  0  0  0999 V2000
   65.5749  154.2466  -50.4058 N   0  0  0  0  0  0  0  0  0  0  0  0
   67.2443  153.1355  -51.5878 N   0  0  0  0  0  0  0  0  0  0  0  0
   67.7331  151.6237  -46.6671 N   0  0  0  0  0  0  0  0  0  0  0  0
   63.9921  155.0638  -48.9110 N   0  0  0  0  0  0  0  0  0  0  0  0
   66.6101  153.3540  -50.4372 C   0  0  0  0  0  0  0  0  0  0  0  0
   66.9144  152.7204  -49.2220 C   0  0  0  0  0  0  0  0  0  0  0  0
   67.8953  151.6929  -49.0975 C   0  0  0  0  0  0  0  0  0  0  0  0
   68.1210  150.9984  -47.7786 C   0  0  0  0  0  0  0  0  0  0  0  0
   67.9244  151.0007  -45.5090 C   0  0  0  0  0  0  0  0  0  0  0  0
   68.5023  149.7438  -45.4032 C   0  0  0  0  0  0  0  0  0  0  0  0
   68.9131  149.1062  -46.5611 C   0  0  0  0  0  0  0  0  0  0  0  0
   68.7242  149.7487  -47.7740 C   0  0  0  0  0  0  0  0  0  0  0  0
   65.0193  154.2661  -49.2053 C   0  0  0  0  0  0  0  0  0  0  0  0
   63.2665  155.0544  -47.6556 C   0  0  0  0  0  0  0  0  0  0  0  0
   62.3972  153.8376  -47.4812 C   0  0  0  0  0  0  0  0  0  0  0  0
   62.4091  153.0738  -46.4019 C   0  0  0  0  0  0  0  0  0  0  0  0
   68.5721  151.3188  -50.0665 O   0  0  0  0  0  0  0  0  0  0  0  0
   65.7191  153.1977  -48.0284 S   0  0  0  0  0  0  0  0  0  0  0  0
   67.0394  153.6935  -52.4045 H   0  0  0  0  0  0  0  0  0  0  0  0
   68.0071  152.4779  -51.5505 H   0  0  0  0  0  0  0  0  0  0  0  0
   67.6072  151.5347  -44.6234 H   0  0  0  0  0  0  0  0  0  0  0  0
   68.6284  149.2880  -44.4317 H   0  0  0  0  0  0  0  0  0  0  0  0
   69.3452  148.1197  -46.5209 H   0  0  0  0  0  0  0  0  0  0  0  0
   69.0289  149.3068  -48.7079 H   0  0  0  0  0  0  0  0  0  0  0  0
   63.6455  155.6916  -49.6295 H   0  0  0  0  0  0  0  0  0  0  0  0
   62.6382  155.9423  -47.6774 H   0  0  0  0  0  0  0  0  0  0  0  0
   63.9507  155.1472  -46.8111 H   0  0  0  0  0  0  0  0  0  0  0  0
   61.7343  153.6279  -48.3132 H   0  0  0  0  0  0  0  0  0  0  0  0
   63.0786  153.2846  -45.5769 H   0  0  0  0  0  0  0  0  0  0  0  0
   61.7610  152.2194  -46.2912 H   0  0  0  0  0  0  0  0  0  0  0  0
  1  5  1  0
  1 13  2  0
  2  5  1  0
  2 19  1  0
  2 20  1  0
  3  8  2  0
  3  9  1  0
  4 13  1  0
  4 14  1  0
  4 25  1  0
  5  6  2  0
  6 18  1  0
  7  6  1  0
  7  8  1  0
  7 17  2  0
  8 12  1  0
  9 10  2  0
  9 21  1  0
 10 11  1  0
 10 22  1  0
 11 12  2  0
 11 23  1  0
 12 24  1  0
 13 18  1  0
 14 15  1  0
 14 26  1  0
 14 27  1  0
 15 16  2  0
 15 28  1  0
 16 29  1  0
 16 30  1  0
M  END
>  <lm5_entropy_jk>  (1) 
21.884956070842478

>  <number_of_rotatable_bonds>  (1) 
5

>  <IC50_NM>  (1) 
33000

>  <charge>  (1) 
0

$$$$
