3RMF
     RDKit          3D

 45 48  0  0  0  0  0  0  0  0999 V2000
   65.9021  154.4004  -50.4632 N   0  0  0  0  0  0  0  0  0  0  0  0
   64.5347  154.9625  -48.6438 N   0  0  0  0  0  0  0  0  0  0  0  0
   67.4050  153.4718  -52.0105 N   0  0  0  0  0  0  0  0  0  0  0  0
   61.7749  152.9828  -42.8088 N   0  0  0  0  0  0  0  0  0  0  0  0
   67.4949  152.8499  -49.6922 C   0  0  0  0  0  0  0  0  0  0  0  0
   66.9604  153.5739  -50.7590 C   0  0  0  0  0  0  0  0  0  0  0  0
   65.5733  154.2745  -49.1989 C   0  0  0  0  0  0  0  0  0  0  0  0
   63.7585  154.6319  -47.5172 C   0  0  0  0  0  0  0  0  0  0  0  0
   68.4781  151.8084  -49.8124 C   0  0  0  0  0  0  0  0  0  0  0  0
   68.7491  150.8903  -48.6564 C   0  0  0  0  0  0  0  0  0  0  0  0
   70.0165  150.2665  -48.5555 C   0  0  0  0  0  0  0  0  0  0  0  0
   70.3153  149.4923  -47.4730 C   0  0  0  0  0  0  0  0  0  0  0  0
   69.3863  149.3092  -46.4169 C   0  0  0  0  0  0  0  0  0  0  0  0
   68.1008  149.8709  -46.5487 C   0  0  0  0  0  0  0  0  0  0  0  0
   67.8034  150.6203  -47.7046 C   0  0  0  0  0  0  0  0  0  0  0  0
   62.8773  155.6034  -47.0361 C   0  0  0  0  0  0  0  0  0  0  0  0
   62.0730  155.3545  -45.9416 C   0  0  0  0  0  0  0  0  0  0  0  0
   62.1160  154.1199  -45.3096 C   0  0  0  0  0  0  0  0  0  0  0  0
   62.9725  153.1349  -45.7838 C   0  0  0  0  0  0  0  0  0  0  0  0
   63.7836  153.3903  -46.8780 C   0  0  0  0  0  0  0  0  0  0  0  0
   69.6941  148.5886  -45.2359 C   0  0  0  0  0  0  0  0  0  0  0  0
   68.7765  148.4771  -44.2327 C   0  0  0  0  0  0  0  0  0  0  0  0
   67.4902  149.0450  -44.3680 C   0  0  0  0  0  0  0  0  0  0  0  0
   67.1526  149.7075  -45.5086 C   0  0  0  0  0  0  0  0  0  0  0  0
   69.1140  151.6647  -50.8583 O   0  0  0  0  0  0  0  0  0  0  0  0
   59.9370  153.0169  -44.4011 O   0  0  0  0  0  0  0  0  0  0  0  0
   60.6718  155.1445  -43.3970 O   0  0  0  0  0  0  0  0  0  0  0  0
   66.5869  153.2585  -48.2629 S   0  0  0  0  0  0  0  0  0  0  0  0
   61.0042  153.8556  -43.9370 S   0  0  0  0  0  0  0  0  0  0  0  0
   64.0712  155.5880  -49.2867 H   0  0  0  0  0  0  0  0  0  0  0  0
   67.0647  154.0645  -52.7452 H   0  0  0  0  0  0  0  0  0  0  0  0
   68.1936  152.8554  -52.1420 H   0  0  0  0  0  0  0  0  0  0  0  0
   61.8806  151.9736  -43.0884 H   0  0  0  0  0  0  0  0  0  0  0  0
   62.6397  153.3931  -42.4756 H   0  0  0  0  0  0  0  0  0  0  0  0
   70.7213  150.4038  -49.3603 H   0  0  0  0  0  0  0  0  0  0  0  0
   71.2649  148.9830  -47.4027 H   0  0  0  0  0  0  0  0  0  0  0  0
   66.7986  150.9881  -47.8000 H   0  0  0  0  0  0  0  0  0  0  0  0
   62.7958  156.5504  -47.5445 H   0  0  0  0  0  0  0  0  0  0  0  0
   61.4067  156.1193  -45.5668 H   0  0  0  0  0  0  0  0  0  0  0  0
   63.0013  152.1660  -45.3008 H   0  0  0  0  0  0  0  0  0  0  0  0
   64.4207  152.6018  -47.2374 H   0  0  0  0  0  0  0  0  0  0  0  0
   70.6601  148.1148  -45.1511 H   0  0  0  0  0  0  0  0  0  0  0  0
   69.0173  147.9382  -43.3288 H   0  0  0  0  0  0  0  0  0  0  0  0
   66.7733  148.9357  -43.5697 H   0  0  0  0  0  0  0  0  0  0  0  0
   66.1595  150.1175  -45.6364 H   0  0  0  0  0  0  0  0  0  0  0  0
  1  7  2  0
  2  8  1  0
  2 30  1  0
  3  6  1  0
  3 31  1  0
  3 32  1  0
  4 33  1  0
  4 34  1  0
  5 28  1  0
  6  1  1  0
  6  5  2  0
  7  2  1  0
  7 28  1  0
  8 16  2  0
  8 20  1  0
  9  5  1  0
  9 10  1  0
 10 11  2  0
 10 15  1  0
 11 12  1  0
 11 35  1  0
 12 13  2  0
 12 36  1  0
 13 21  1  0
 14 13  1  0
 14 24  1  0
 15 14  2  0
 15 37  1  0
 16 17  1  0
 16 38  1  0
 17 18  2  0
 17 39  1  0
 18 29  1  0
 19 18  1  0
 19 40  1  0
 20 19  2  0
 20 41  1  0
 21 22  2  0
 21 42  1  0
 22 43  1  0
 23 22  1  0
 23 44  1  0
 24 23  2  0
 24 45  1  0
 25  9  2  0
 26 29  2  0
 29 27  2  0
 29  4  1  0
M  END
>  <lm5_entropy_jk>  (1) 
22.397995528352578

>  <number_of_rotatable_bonds>  (1) 
5

>  <IC50_NM>  (1) 
82000

>  <charge>  (1) 
0

$$$$
