3QQK
     RDKit          3D

 31 32  0  0  0  0  0  0  0  0999 V2000
   62.9125  153.3918  -46.2649 C   0  0  0  0  0  0  0  0  0  0  0  0
   62.9071  154.1009  -47.3813 C   0  0  0  0  0  0  0  0  0  0  0  0
   63.8266  155.2641  -47.6234 C   0  0  0  0  0  0  0  0  0  0  0  0
   64.4184  155.3499  -48.9507 N   0  0  0  0  0  0  0  0  0  0  0  0
   65.3825  154.5107  -49.4075 C   0  0  0  0  0  0  0  0  0  0  0  0
   65.8048  154.5368  -50.6468 N   0  0  0  0  0  0  0  0  0  0  0  0
   66.8640  153.6843  -50.8000 C   0  0  0  0  0  0  0  0  0  0  0  0
   67.2984  153.0100  -49.6548 C   0  0  0  0  0  0  0  0  0  0  0  0
   66.2031  153.4154  -48.3516 S   0  0  0  0  0  0  0  0  0  0  0  0
   67.4261  153.5204  -52.0012 N   0  0  0  0  0  0  0  0  0  0  0  0
   68.3964  152.0848  -49.6346 C   0  0  0  0  0  0  0  0  0  0  0  0
   68.5809  151.0850  -48.5302 C   0  0  0  0  0  0  0  0  0  0  0  0
   67.5021  150.4600  -47.9211 C   0  0  0  0  0  0  0  0  0  0  0  0
   67.6992  149.4160  -47.0295 C   0  0  0  0  0  0  0  0  0  0  0  0
   68.9865  148.9968  -46.7330 C   0  0  0  0  0  0  0  0  0  0  0  0
   70.0786  149.6268  -47.3229 C   0  0  0  0  0  0  0  0  0  0  0  0
   69.8735  150.6541  -48.2296 C   0  0  0  0  0  0  0  0  0  0  0  0
   69.2288  152.0735  -50.5457 O   0  0  0  0  0  0  0  0  0  0  0  0
   62.2071  152.5904  -46.1037 H   0  0  0  0  0  0  0  0  0  0  0  0
   63.6210  153.5903  -45.4701 H   0  0  0  0  0  0  0  0  0  0  0  0
   62.1859  153.8849  -48.1636 H   0  0  0  0  0  0  0  0  0  0  0  0
   63.2669  156.1886  -47.4882 H   0  0  0  0  0  0  0  0  0  0  0  0
   64.6191  155.2618  -46.8792 H   0  0  0  0  0  0  0  0  0  0  0  0
   63.7543  155.6559  -49.6636 H   0  0  0  0  0  0  0  0  0  0  0  0
   67.1215  154.0672  -52.8015 H   0  0  0  0  0  0  0  0  0  0  0  0
   68.2774  152.9903  -52.0529 H   0  0  0  0  0  0  0  0  0  0  0  0
   66.4984  150.7547  -48.1754 H   0  0  0  0  0  0  0  0  0  0  0  0
   66.8414  148.9200  -46.5916 H   0  0  0  0  0  0  0  0  0  0  0  0
   69.1329  148.1624  -46.0591 H   0  0  0  0  0  0  0  0  0  0  0  0
   71.0777  149.2716  -47.1052 H   0  0  0  0  0  0  0  0  0  0  0  0
   70.7007  151.1063  -48.7520 H   0  0  0  0  0  0  0  0  0  0  0  0
  1  2  2  0
  1 19  1  0
  1 20  1  0
  2 21  1  0
  3  2  1  0
  3 22  1  0
  3 23  1  0
  4  3  1  0
  4 24  1  0
  5  4  1  0
  5  9  1  0
  6  5  2  0
  7  6  1  0
  7  8  2  0
  8  9  1  0
 10  7  1  0
 10 25  1  0
 10 26  1  0
 11  8  1  0
 11 12  1  0
 12 17  1  0
 12 13  2  0
 13 14  1  0
 13 27  1  0
 14 15  2  0
 14 28  1  0
 15 29  1  0
 16 15  1  0
 16 30  1  0
 17 16  2  0
 17 31  1  0
 18 11  2  0
M  END
>  <lm5_entropy_jk>  (1) 
22.397995528352578

>  <number_of_rotatable_bonds>  (1) 
5

>  <IC50_NM>  (1) 
15000

>  <charge>  (1) 
0

$$$$
