3R8V
     RDKit          3D

 33 34  0  0  1  0  0  0  0  0999 V2000
   65.5297  154.3916  -50.2933 N   0  0  0  0  0  0  0  0  0  0  0  0
   67.3622  153.4361  -51.3751 N   0  0  0  0  0  0  0  0  0  0  0  0
   63.8173  155.0732  -48.8720 N   0  0  0  0  0  0  0  0  0  0  0  0
   68.8111  151.1896  -44.0658 N   0  0  0  0  0  0  0  0  0  0  0  0
   66.6064  153.5505  -50.2848 C   0  0  0  0  0  0  0  0  0  0  0  0
   66.8319  152.8595  -49.0838 C   0  0  0  0  0  0  0  0  0  0  0  0
   67.8460  151.8790  -48.9224 C   0  0  0  0  0  0  0  0  0  0  0  0
   67.9196  151.0312  -47.6741 C   0  0  0  0  0  0  0  0  0  0  0  0
   68.2322  151.5475  -46.4276 C   0  0  0  0  0  0  0  0  0  0  0  0
   68.4021  150.6611  -45.3745 C   0  0  0  0  0  0  0  0  0  0  0  0
   68.2268  149.2970  -45.5138 C   0  0  0  0  0  0  0  0  0  0  0  0
   67.8891  148.7960  -46.7581 C   0  0  0  0  0  0  0  0  0  0  0  0
   67.7552  149.6587  -47.8314 C   0  0  0  0  0  0  0  0  0  0  0  0
   64.8779  154.3204  -49.1455 C   0  0  0  0  0  0  0  0  0  0  0  0
   63.1333  155.1128  -47.5966 C   0  0  0  0  0  0  0  0  0  0  0  0
   62.3982  153.8474  -47.2610 C   0  0  0  0  0  0  0  0  0  0  0  0
   62.4226  153.2718  -46.0710 C   0  0  0  0  0  0  0  0  0  0  0  0
   68.6756  151.6452  -49.8082 O   0  0  0  0  0  0  0  0  0  0  0  0
   68.8386  152.3987  -43.9138 O   0  0  0  0  0  0  0  0  0  0  0  0
   69.1198  150.4014  -43.1918 O   0  0  0  0  0  0  0  0  0  0  0  0
   65.5061  153.1830  -47.9872 S   0  0  0  0  0  0  0  0  0  0  0  0
   67.1236  153.9335  -52.2221 H   0  0  0  0  0  0  0  0  0  0  0  0
   68.1151  152.7693  -51.3327 H   0  0  0  0  0  0  0  0  0  0  0  0
   68.3820  152.6005  -46.2701 H   0  0  0  0  0  0  0  0  0  0  0  0
   68.3479  148.6453  -44.6649 H   0  0  0  0  0  0  0  0  0  0  0  0
   67.7571  147.7339  -46.8857 H   0  0  0  0  0  0  0  0  0  0  0  0
   67.5180  149.2692  -48.8082 H   0  0  0  0  0  0  0  0  0  0  0  0
   63.4350  155.6706  -49.6037 H   0  0  0  0  0  0  0  0  0  0  0  0
   62.4084  155.9196  -47.6832 H   0  0  0  0  0  0  0  0  0  0  0  0
   63.8208  155.3712  -46.7894 H   0  0  0  0  0  0  0  0  0  0  0  0
   61.8326  152.3975  -45.8409 H   0  0  0  0  0  0  0  0  0  0  0  0
   63.0324  153.6746  -45.2704 H   0  0  0  0  0  0  0  0  0  0  0  0
   61.8046  153.4507  -48.0752 H   0  0  0  0  0  0  0  0  0  0  0  0
  1  5  1  0
  1 14  2  0
  2  5  1  0
  2 22  1  0
  2 23  1  0
  3 14  1  0
  3 15  1  0
  3 28  1  0
  4 10  1  0
  4 19  1  0
  4 20  2  0
  5  6  2  0
  6 21  1  0
  7  6  1  0
  7  8  1  0
  7 18  2  0
  8  9  2  0
  8 13  1  0
  9 10  1  0
  9 24  1  0
 10 11  2  0
 11 12  1  0
 11 25  1  0
 12 13  2  0
 12 26  1  0
 13 27  1  0
 14 21  1  0
 15 16  1  0
 15 29  1  0
 15 30  1  0
 16 17  2  0
 16 33  1  0
 17 31  1  0
 17 32  1  0
M  CHG  2   4   1  19  -1
M  END
>  <lm5_entropy_jk>  (1) 
33.50945403317048

>  <number_of_rotatable_bonds>  (1) 
6

>  <IC50_NM>  (1) 
2900

>  <charge>  (1) 
0

$$$$
