3R8U
     RDKit          3D

 37 39  0  0  1  0  0  0  0  0999 V2000
   64.2248  155.4201  -48.8602 N   0  0  0  0  0  0  0  0  0  0  0  0
   65.7024  154.5731  -50.4934 N   0  0  0  0  0  0  0  0  0  0  0  0
   67.3810  153.5121  -51.7390 N   0  0  0  0  0  0  0  0  0  0  0  0
   62.6065  153.5865  -46.1015 C   0  0  0  0  0  0  0  0  0  0  0  0
   62.7502  154.1285  -47.2991 C   0  0  0  0  0  0  0  0  0  0  0  0
   63.5686  155.3575  -47.5585 C   0  0  0  0  0  0  0  0  0  0  0  0
   65.1599  154.5327  -49.2996 C   0  0  0  0  0  0  0  0  0  0  0  0
   67.0719  153.0125  -49.3748 C   0  0  0  0  0  0  0  0  0  0  0  0
   66.7517  153.6838  -50.5613 C   0  0  0  0  0  0  0  0  0  0  0  0
   68.1862  152.1331  -49.1383 C   0  0  0  0  0  0  0  0  0  0  0  0
   68.2265  151.2675  -47.8943 C   0  0  0  0  0  0  0  0  0  0  0  0
   68.1248  151.7408  -46.6142 C   0  0  0  0  0  0  0  0  0  0  0  0
   68.2530  150.8858  -45.4873 C   0  0  0  0  0  0  0  0  0  0  0  0
   68.4374  149.5035  -45.7009 C   0  0  0  0  0  0  0  0  0  0  0  0
   68.5194  149.0320  -47.0325 C   0  0  0  0  0  0  0  0  0  0  0  0
   68.4364  149.8816  -48.0921 C   0  0  0  0  0  0  0  0  0  0  0  0
   68.2152  151.3662  -44.1525 C   0  0  0  0  0  0  0  0  0  0  0  0
   68.3122  150.5093  -43.0959 C   0  0  0  0  0  0  0  0  0  0  0  0
   68.4630  149.1245  -43.3151 C   0  0  0  0  0  0  0  0  0  0  0  0
   68.5373  148.6366  -44.5842 C   0  0  0  0  0  0  0  0  0  0  0  0
   69.1232  152.0417  -49.9319 O   0  0  0  0  0  0  0  0  0  0  0  0
   65.8109  153.3630  -48.2116 S   0  0  0  0  0  0  0  0  0  0  0  0
   62.9184  156.2299  -47.5015 H   0  0  0  0  0  0  0  0  0  0  0  0
   64.2997  155.4949  -46.7712 H   0  0  0  0  0  0  0  0  0  0  0  0
   63.6175  155.8031  -49.5764 H   0  0  0  0  0  0  0  0  0  0  0  0
   67.1338  154.0661  -52.5579 H   0  0  0  0  0  0  0  0  0  0  0  0
   68.2159  152.9592  -51.7863 H   0  0  0  0  0  0  0  0  0  0  0  0
   67.9636  152.7894  -46.4301 H   0  0  0  0  0  0  0  0  0  0  0  0
   68.6483  147.9719  -47.1955 H   0  0  0  0  0  0  0  0  0  0  0  0
   68.5094  149.5033  -49.0978 H   0  0  0  0  0  0  0  0  0  0  0  0
   68.1082  152.4227  -43.9711 H   0  0  0  0  0  0  0  0  0  0  0  0
   68.2679  150.8708  -42.0785 H   0  0  0  0  0  0  0  0  0  0  0  0
   68.5198  148.4616  -42.4633 H   0  0  0  0  0  0  0  0  0  0  0  0
   68.6623  147.5782  -44.7567 H   0  0  0  0  0  0  0  0  0  0  0  0
   61.9996  152.7109  -45.9311 H   0  0  0  0  0  0  0  0  0  0  0  0
   63.0973  153.9995  -45.2311 H   0  0  0  0  0  0  0  0  0  0  0  0
   62.2465  153.7199  -48.1643 H   0  0  0  0  0  0  0  0  0  0  0  0
  1  6  1  0
  1  7  1  0
  1 25  1  0
  2  7  2  0
  2  9  1  0
  3  9  1  0
  3 26  1  0
  3 27  1  0
  4  5  2  0
  4 35  1  0
  4 36  1  0
  5  6  1  0
  5 37  1  0
  6 23  1  0
  6 24  1  0
  7 22  1  0
  8  9  2  0
  8 22  1  0
 10  8  1  0
 10 11  1  0
 10 21  2  0
 11 12  2  0
 11 16  1  0
 12 13  1  0
 12 28  1  0
 13 14  2  0
 13 17  1  0
 14 15  1  0
 14 20  1  0
 15 16  2  0
 15 29  1  0
 16 30  1  0
 17 18  2  0
 17 31  1  0
 18 19  1  0
 18 32  1  0
 19 20  2  0
 19 33  1  0
 20 34  1  0
M  END
>  <lm5_entropy_jk>  (1) 
31.97375871552738

>  <number_of_rotatable_bonds>  (1) 
5

>  <IC50_NM>  (1) 
5000

>  <charge>  (1) 
0

$$$$
