3RPV
     RDKit          3D

 41 43  0  0  0  0  0  0  0  0999 V2000
   65.7101  154.4830  -50.3461 N   0  0  0  0  0  0  0  0  0  0  0  0
   64.3943  154.9378  -48.4786 N   0  0  0  0  0  0  0  0  0  0  0  0
   67.2098  153.6969  -51.9656 N   0  0  0  0  0  0  0  0  0  0  0  0
   67.1598  148.6761  -46.3540 N   0  0  0  0  0  0  0  0  0  0  0  0
   61.6064  152.7298  -42.7659 N   0  0  0  0  0  0  0  0  0  0  0  0
   67.2948  152.8722  -49.7117 C   0  0  0  0  0  0  0  0  0  0  0  0
   66.7639  153.6883  -50.7143 C   0  0  0  0  0  0  0  0  0  0  0  0
   65.3982  154.2681  -49.0828 C   0  0  0  0  0  0  0  0  0  0  0  0
   63.7051  154.6206  -47.3039 C   0  0  0  0  0  0  0  0  0  0  0  0
   68.3334  151.9194  -49.9120 C   0  0  0  0  0  0  0  0  0  0  0  0
   68.6826  150.9129  -48.8566 C   0  0  0  0  0  0  0  0  0  0  0  0
   70.0238  150.5919  -48.7175 C   0  0  0  0  0  0  0  0  0  0  0  0
   70.3825  149.6264  -47.7937 C   0  0  0  0  0  0  0  0  0  0  0  0
   69.4417  148.9801  -47.0223 C   0  0  0  0  0  0  0  0  0  0  0  0
   68.0844  149.2925  -47.1570 C   0  0  0  0  0  0  0  0  0  0  0  0
   67.7154  150.2632  -48.0964 C   0  0  0  0  0  0  0  0  0  0  0  0
   63.7577  153.3731  -46.6784 C   0  0  0  0  0  0  0  0  0  0  0  0
   62.9874  153.1305  -45.5590 C   0  0  0  0  0  0  0  0  0  0  0  0
   62.1729  154.1326  -45.0578 C   0  0  0  0  0  0  0  0  0  0  0  0
   62.0995  155.3735  -45.6705 C   0  0  0  0  0  0  0  0  0  0  0  0
   62.8676  155.6120  -46.7890 C   0  0  0  0  0  0  0  0  0  0  0  0
   68.9677  151.9081  -50.9721 O   0  0  0  0  0  0  0  0  0  0  0  0
   59.9447  153.0185  -44.5414 O   0  0  0  0  0  0  0  0  0  0  0  0
   60.5903  154.9470  -43.1435 O   0  0  0  0  0  0  0  0  0  0  0  0
   66.4015  153.1269  -48.2454 S   0  0  0  0  0  0  0  0  0  0  0  0
   60.9810  153.7296  -43.8287 S   0  0  0  0  0  0  0  0  0  0  0  0
   63.8939  155.5853  -49.0827 H   0  0  0  0  0  0  0  0  0  0  0  0
   66.8210  154.2846  -52.6871 H   0  0  0  0  0  0  0  0  0  0  0  0
   67.9986  153.0912  -52.1353 H   0  0  0  0  0  0  0  0  0  0  0  0
   66.1795  148.7061  -46.5870 H   0  0  0  0  0  0  0  0  0  0  0  0
   67.4447  147.7991  -45.9444 H   0  0  0  0  0  0  0  0  0  0  0  0
   61.8241  151.7450  -43.0572 H   0  0  0  0  0  0  0  0  0  0  0  0
   62.0229  153.1204  -41.9401 H   0  0  0  0  0  0  0  0  0  0  0  0
   70.7544  151.0750  -49.3434 H   0  0  0  0  0  0  0  0  0  0  0  0
   71.4135  149.3267  -47.7190 H   0  0  0  0  0  0  0  0  0  0  0  0
   69.7307  148.2081  -46.3193 H   0  0  0  0  0  0  0  0  0  0  0  0
   66.6659  150.4726  -48.2341 H   0  0  0  0  0  0  0  0  0  0  0  0
   64.3366  152.5638  -47.0816 H   0  0  0  0  0  0  0  0  0  0  0  0
   63.0003  152.1553  -45.0884 H   0  0  0  0  0  0  0  0  0  0  0  0
   61.4291  156.1323  -45.2979 H   0  0  0  0  0  0  0  0  0  0  0  0
   62.7778  156.5477  -47.3122 H   0  0  0  0  0  0  0  0  0  0  0  0
  1  8  2  0
  2  9  1  0
  2 27  1  0
  3  7  1  0
  3 28  1  0
  3 29  1  0
  4 30  1  0
  4 31  1  0
  5 32  1  0
  5 33  1  0
  6 25  1  0
  7  1  1  0
  7  6  2  0
  8  2  1  0
  8 25  1  0
  9 21  1  0
  9 17  2  0
 10  6  1  0
 10 11  1  0
 11 12  2  0
 11 16  1  0
 12 13  1  0
 12 34  1  0
 13 14  2  0
 13 35  1  0
 14 36  1  0
 15 14  1  0
 15  4  1  0
 16 15  2  0
 16 37  1  0
 17 18  1  0
 17 38  1  0
 18 19  2  0
 18 39  1  0
 19 26  1  0
 20 19  1  0
 20 40  1  0
 21 20  2  0
 21 41  1  0
 22 10  2  0
 23 26  2  0
 26 24  2  0
 26  5  1  0
M  END
>  <lm5_entropy_jk>  (1) 
21.154920599914565

>  <number_of_rotatable_bonds>  (1) 
5

>  <IC50_NM>  (1) 
70

>  <charge>  (1) 
0

$$$$
