3RMF
     RDKit          3D

 45 48  0  0  0  0  0  0  0  0999 V2000
   65.5299  154.1450  -50.4783 N   0  0  0  0  0  0  0  0  0  0  0  0
   64.1052  154.7391  -48.7666 N   0  0  0  0  0  0  0  0  0  0  0  0
   67.0777  153.2637  -51.9699 N   0  0  0  0  0  0  0  0  0  0  0  0
   61.2074  153.2240  -42.9089 N   0  0  0  0  0  0  0  0  0  0  0  0
   67.1424  152.6511  -49.6392 C   0  0  0  0  0  0  0  0  0  0  0  0
   66.6158  153.3532  -50.7337 C   0  0  0  0  0  0  0  0  0  0  0  0
   65.1631  154.0362  -49.2211 C   0  0  0  0  0  0  0  0  0  0  0  0
   63.3502  154.5480  -47.6040 C   0  0  0  0  0  0  0  0  0  0  0  0
   68.2119  151.7178  -49.7527 C   0  0  0  0  0  0  0  0  0  0  0  0
   68.6797  150.8927  -48.5920 C   0  0  0  0  0  0  0  0  0  0  0  0
   70.0721  150.6430  -48.5336 C   0  0  0  0  0  0  0  0  0  0  0  0
   70.5901  149.8212  -47.5832 C   0  0  0  0  0  0  0  0  0  0  0  0
   69.7493  149.1704  -46.6489 C   0  0  0  0  0  0  0  0  0  0  0  0
   68.3596  149.4144  -46.6967 C   0  0  0  0  0  0  0  0  0  0  0  0
   67.8461  150.2881  -47.6885 C   0  0  0  0  0  0  0  0  0  0  0  0
   62.5711  155.6190  -47.1688 C   0  0  0  0  0  0  0  0  0  0  0  0
   61.7472  155.4845  -46.0703 C   0  0  0  0  0  0  0  0  0  0  0  0
   61.7174  154.2730  -45.3931 C   0  0  0  0  0  0  0  0  0  0  0  0
   62.4869  153.1982  -45.8168 C   0  0  0  0  0  0  0  0  0  0  0  0
   63.2997  153.3309  -46.9250 C   0  0  0  0  0  0  0  0  0  0  0  0
   70.2590  148.2573  -45.6916 C   0  0  0  0  0  0  0  0  0  0  0  0
   69.4173  147.6370  -44.8154 C   0  0  0  0  0  0  0  0  0  0  0  0
   68.0288  147.8893  -44.8548 C   0  0  0  0  0  0  0  0  0  0  0  0
   67.5107  148.7527  -45.7756 C   0  0  0  0  0  0  0  0  0  0  0  0
   68.8050  151.5560  -50.8313 O   0  0  0  0  0  0  0  0  0  0  0  0
   59.5529  153.0837  -44.6889 O   0  0  0  0  0  0  0  0  0  0  0  0
   60.0629  155.2886  -43.6732 O   0  0  0  0  0  0  0  0  0  0  0  0
   66.1595  153.0027  -48.2412 S   0  0  0  0  0  0  0  0  0  0  0  0
   60.5200  154.0024  -44.1392 S   0  0  0  0  0  0  0  0  0  0  0  0
   63.6780  155.3589  -49.4541 H   0  0  0  0  0  0  0  0  0  0  0  0
   66.7525  153.8698  -52.7088 H   0  0  0  0  0  0  0  0  0  0  0  0
   67.8928  152.6832  -52.0966 H   0  0  0  0  0  0  0  0  0  0  0  0
   61.3727  152.2351  -43.1176 H   0  0  0  0  0  0  0  0  0  0  0  0
   61.9778  153.7266  -42.4958 H   0  0  0  0  0  0  0  0  0  0  0  0
   70.7062  151.0998  -49.2788 H   0  0  0  0  0  0  0  0  0  0  0  0
   71.6470  149.6067  -47.5690 H   0  0  0  0  0  0  0  0  0  0  0  0
   66.7743  150.4208  -47.7438 H   0  0  0  0  0  0  0  0  0  0  0  0
   62.5858  156.5390  -47.7319 H   0  0  0  0  0  0  0  0  0  0  0  0
   61.1098  156.2958  -45.7574 H   0  0  0  0  0  0  0  0  0  0  0  0
   62.4103  152.2482  -45.3046 H   0  0  0  0  0  0  0  0  0  0  0  0
   63.8481  152.4763  -47.2840 H   0  0  0  0  0  0  0  0  0  0  0  0
   71.3199  148.0419  -45.6929 H   0  0  0  0  0  0  0  0  0  0  0  0
   69.8091  146.9439  -44.0852 H   0  0  0  0  0  0  0  0  0  0  0  0
   67.3761  147.3736  -44.1648 H   0  0  0  0  0  0  0  0  0  0  0  0
   66.4451  148.9174  -45.8380 H   0  0  0  0  0  0  0  0  0  0  0  0
  1  7  2  0
  2  8  1  0
  2 30  1  0
  3  6  1  0
  3 31  1  0
  3 32  1  0
  4 33  1  0
  4 34  1  0
  5 28  1  0
  6  1  1  0
  6  5  2  0
  7  2  1  0
  7 28  1  0
  8 16  2  0
  8 20  1  0
  9  5  1  0
  9 10  1  0
 10 11  2  0
 10 15  1  0
 11 12  1  0
 11 35  1  0
 12 13  2  0
 12 36  1  0
 13 21  1  0
 14 13  1  0
 14 24  1  0
 15 14  2  0
 15 37  1  0
 16 17  1  0
 16 38  1  0
 17 18  2  0
 17 39  1  0
 18 29  1  0
 19 18  1  0
 19 40  1  0
 20 19  2  0
 20 41  1  0
 21 22  2  0
 21 42  1  0
 22 43  1  0
 23 22  1  0
 23 44  1  0
 24 23  2  0
 24 45  1  0
 25  9  2  0
 26 29  2  0
 29 27  2  0
 29  4  1  0
M  END
>  <lm5_entropy_jk>  (1) 
22.397995528352578

>  <number_of_rotatable_bonds>  (1) 
5

>  <IC50_NM>  (1) 
82000

>  <charge>  (1) 
0

$$$$
