3RMF
     RDKit          3D

 45 48  0  0  0  0  0  0  0  0999 V2000
   65.4846  154.1044  -50.4939 N   0  0  0  0  0  0  0  0  0  0  0  0
   64.0297  154.6590  -48.7957 N   0  0  0  0  0  0  0  0  0  0  0  0
   67.0636  153.2623  -51.9754 N   0  0  0  0  0  0  0  0  0  0  0  0
   61.1393  153.1937  -42.9520 N   0  0  0  0  0  0  0  0  0  0  0  0
   67.1010  152.6153  -49.6542 C   0  0  0  0  0  0  0  0  0  0  0  0
   66.5809  153.3272  -50.7461 C   0  0  0  0  0  0  0  0  0  0  0  0
   65.1035  153.9774  -49.2411 C   0  0  0  0  0  0  0  0  0  0  0  0
   63.2573  154.4663  -47.6447 C   0  0  0  0  0  0  0  0  0  0  0  0
   68.1765  151.6910  -49.7692 C   0  0  0  0  0  0  0  0  0  0  0  0
   68.6406  150.8616  -48.6112 C   0  0  0  0  0  0  0  0  0  0  0  0
   70.0308  150.6012  -48.5560 C   0  0  0  0  0  0  0  0  0  0  0  0
   70.5447  149.7845  -47.5990 C   0  0  0  0  0  0  0  0  0  0  0  0
   69.7014  149.1460  -46.6594 C   0  0  0  0  0  0  0  0  0  0  0  0
   68.3139  149.3994  -46.7048 C   0  0  0  0  0  0  0  0  0  0  0  0
   67.8050  150.2692  -47.7014 C   0  0  0  0  0  0  0  0  0  0  0  0
   62.4280  155.5186  -47.2574 C   0  0  0  0  0  0  0  0  0  0  0  0
   61.5884  155.3873  -46.1709 C   0  0  0  0  0  0  0  0  0  0  0  0
   61.5893  154.1967  -45.4573 C   0  0  0  0  0  0  0  0  0  0  0  0
   62.4068  153.1398  -45.8344 C   0  0  0  0  0  0  0  0  0  0  0  0
   63.2365  153.2687  -46.9308 C   0  0  0  0  0  0  0  0  0  0  0  0
   70.2077  148.2280  -45.7054 C   0  0  0  0  0  0  0  0  0  0  0  0
   69.3634  147.6074  -44.8324 C   0  0  0  0  0  0  0  0  0  0  0  0
   67.9772  147.8747  -44.8644 C   0  0  0  0  0  0  0  0  0  0  0  0
   67.4633  148.7463  -45.7796 C   0  0  0  0  0  0  0  0  0  0  0  0
   68.7794  151.5414  -50.8449 O   0  0  0  0  0  0  0  0  0  0  0  0
   59.4391  152.9938  -44.6846 O   0  0  0  0  0  0  0  0  0  0  0  0
   59.9494  155.2288  -43.7307 O   0  0  0  0  0  0  0  0  0  0  0  0
   66.1026  152.9468  -48.2617 S   0  0  0  0  0  0  0  0  0  0  0  0
   60.4084  153.9389  -44.1821 S   0  0  0  0  0  0  0  0  0  0  0  0
   63.5992  155.2679  -49.4929 H   0  0  0  0  0  0  0  0  0  0  0  0
   66.7210  153.8482  -52.7230 H   0  0  0  0  0  0  0  0  0  0  0  0
   67.8783  152.6809  -52.1014 H   0  0  0  0  0  0  0  0  0  0  0  0
   61.3272  152.2066  -43.1550 H   0  0  0  0  0  0  0  0  0  0  0  0
   61.9196  153.7164  -42.5828 H   0  0  0  0  0  0  0  0  0  0  0  0
   70.6663  151.0453  -49.3080 H   0  0  0  0  0  0  0  0  0  0  0  0
   71.5994  149.5593  -47.5848 H   0  0  0  0  0  0  0  0  0  0  0  0
   66.7343  150.4076  -47.7559 H   0  0  0  0  0  0  0  0  0  0  0  0
   62.4165  156.4208  -47.8476 H   0  0  0  0  0  0  0  0  0  0  0  0
   60.9154  156.1840  -45.8982 H   0  0  0  0  0  0  0  0  0  0  0  0
   62.3627  152.2058  -45.2907 H   0  0  0  0  0  0  0  0  0  0  0  0
   63.8263  152.4255  -47.2478 H   0  0  0  0  0  0  0  0  0  0  0  0
   71.2671  148.0054  -45.7095 H   0  0  0  0  0  0  0  0  0  0  0  0
   69.7531  146.9004  -44.1147 H   0  0  0  0  0  0  0  0  0  0  0  0
   67.3209  147.3637  -44.1747 H   0  0  0  0  0  0  0  0  0  0  0  0
   66.3992  148.9223  -45.8376 H   0  0  0  0  0  0  0  0  0  0  0  0
  1  7  2  0
  2  8  1  0
  2 30  1  0
  3  6  1  0
  3 31  1  0
  3 32  1  0
  4 33  1  0
  4 34  1  0
  5 28  1  0
  6  1  1  0
  6  5  2  0
  7  2  1  0
  7 28  1  0
  8 16  2  0
  8 20  1  0
  9  5  1  0
  9 10  1  0
 10 11  2  0
 10 15  1  0
 11 12  1  0
 11 35  1  0
 12 13  2  0
 12 36  1  0
 13 21  1  0
 14 13  1  0
 14 24  1  0
 15 14  2  0
 15 37  1  0
 16 17  1  0
 16 38  1  0
 17 18  2  0
 17 39  1  0
 18 29  1  0
 19 18  1  0
 19 40  1  0
 20 19  2  0
 20 41  1  0
 21 22  2  0
 21 42  1  0
 22 43  1  0
 23 22  1  0
 23 44  1  0
 24 23  2  0
 24 45  1  0
 25  9  2  0
 26 29  2  0
 29 27  2  0
 29  4  1  0
M  END
>  <lm5_entropy_jk>  (1) 
22.397995528352578

>  <number_of_rotatable_bonds>  (1) 
5

>  <IC50_NM>  (1) 
82000

>  <charge>  (1) 
0

$$$$
