3QTR
     RDKit          3D

 34 36  0  0  1  0  0  0  0  0999 V2000
   65.8638  154.3207  -50.3186 N   0  0  0  0  0  0  0  0  0  0  0  0
   67.4595  153.5578  -51.8826 N   0  0  0  0  0  0  0  0  0  0  0  0
   64.3571  154.6518  -48.5375 N   0  0  0  0  0  0  0  0  0  0  0  0
   66.9526  153.5380  -50.6386 C   0  0  0  0  0  0  0  0  0  0  0  0
   67.4606  152.7387  -49.6133 C   0  0  0  0  0  0  0  0  0  0  0  0
   68.5147  151.7631  -49.6967 C   0  0  0  0  0  0  0  0  0  0  0  0
   68.6814  150.8005  -48.5467 C   0  0  0  0  0  0  0  0  0  0  0  0
   67.6202  149.9945  -48.1466 C   0  0  0  0  0  0  0  0  0  0  0  0
   67.7702  149.0957  -47.1059 C   0  0  0  0  0  0  0  0  0  0  0  0
   68.9902  148.9805  -46.4626 C   0  0  0  0  0  0  0  0  0  0  0  0
   70.0552  149.7746  -46.8554 C   0  0  0  0  0  0  0  0  0  0  0  0
   69.9015  150.6847  -47.8919 C   0  0  0  0  0  0  0  0  0  0  0  0
   65.4515  154.0512  -49.0937 C   0  0  0  0  0  0  0  0  0  0  0  0
   63.6487  154.3907  -47.3341 C   0  0  0  0  0  0  0  0  0  0  0  0
   62.6955  155.3348  -46.9350 C   0  0  0  0  0  0  0  0  0  0  0  0
   61.9868  155.1828  -45.7557 C   0  0  0  0  0  0  0  0  0  0  0  0
   62.2128  154.0877  -44.9359 C   0  0  0  0  0  0  0  0  0  0  0  0
   63.1316  153.1386  -45.3381 C   0  0  0  0  0  0  0  0  0  0  0  0
   63.8267  153.2699  -46.5329 C   0  0  0  0  0  0  0  0  0  0  0  0
   69.2830  151.7017  -50.6580 O   0  0  0  0  0  0  0  0  0  0  0  0
   66.4380  152.9419  -48.2169 S   0  0  0  0  0  0  0  0  0  0  0  0
   67.0869  154.1388  -52.6317 H   0  0  0  0  0  0  0  0  0  0  0  0
   68.2668  153.0017  -52.0948 H   0  0  0  0  0  0  0  0  0  0  0  0
   66.6722  150.0505  -48.6554 H   0  0  0  0  0  0  0  0  0  0  0  0
   66.9334  148.4903  -46.7868 H   0  0  0  0  0  0  0  0  0  0  0  0
   69.0985  148.2622  -45.6623 H   0  0  0  0  0  0  0  0  0  0  0  0
   70.9924  149.6771  -46.3323 H   0  0  0  0  0  0  0  0  0  0  0  0
   70.7181  151.3223  -48.1856 H   0  0  0  0  0  0  0  0  0  0  0  0
   63.8085  155.2064  -49.1899 H   0  0  0  0  0  0  0  0  0  0  0  0
   62.4918  156.1897  -47.5609 H   0  0  0  0  0  0  0  0  0  0  0  0
   61.2559  155.9269  -45.4731 H   0  0  0  0  0  0  0  0  0  0  0  0
   61.6831  153.9668  -44.0033 H   0  0  0  0  0  0  0  0  0  0  0  0
   63.3107  152.2677  -44.7205 H   0  0  0  0  0  0  0  0  0  0  0  0
   64.4881  152.4739  -46.8175 H   0  0  0  0  0  0  0  0  0  0  0  0
  1  4  1  0
  1 13  2  0
  2  4  1  0
  2 22  1  0
  2 23  1  0
  3 13  1  0
  3 14  1  0
  3 29  1  0
  4  5  2  0
  5 21  1  0
  6  5  1  0
  6  7  1  0
  6 20  2  0
  7  8  2  0
  7 12  1  0
  8  9  1  0
  8 24  1  0
  9 10  2  0
  9 25  1  0
 10 11  1  0
 10 26  1  0
 11 12  2  0
 11 27  1  0
 12 28  1  0
 13 21  1  0
 14 15  2  0
 14 19  1  0
 15 16  1  0
 15 30  1  0
 16 17  2  0
 16 31  1  0
 17 18  1  0
 17 32  1  0
 18 19  2  0
 18 33  1  0
 19 34  1  0
M  END
>  <lm5_entropy_jk>  (1) 
21.136452688881562

>  <number_of_rotatable_bonds>  (1) 
4

>  <IC50_NM>  (1) 
930

>  <charge>  (1) 
0

$$$$
