3RJC
     RDKit          3D

 34 36  0  0  0  0  0  0  0  0999 V2000
   65.3466  154.2915  -50.4953 N   0  0  0  0  0  0  0  0  0  0  0  0
   66.4801  153.5678  -50.7605 C   0  0  0  0  0  0  0  0  0  0  0  0
   66.9697  153.5357  -51.9949 N   0  0  0  0  0  0  0  0  0  0  0  0
   67.0197  152.8658  -49.6791 C   0  0  0  0  0  0  0  0  0  0  0  0
   68.1782  152.0398  -49.7850 C   0  0  0  0  0  0  0  0  0  0  0  0
   68.5853  151.0916  -48.6993 C   0  0  0  0  0  0  0  0  0  0  0  0
   67.6583  150.3553  -47.9658 C   0  0  0  0  0  0  0  0  0  0  0  0
   68.0858  149.3935  -47.0617 C   0  0  0  0  0  0  0  0  0  0  0  0
   69.4434  149.1728  -46.8856 C   0  0  0  0  0  0  0  0  0  0  0  0
   70.3691  149.9096  -47.6100 C   0  0  0  0  0  0  0  0  0  0  0  0
   69.9439  150.8576  -48.5227 C   0  0  0  0  0  0  0  0  0  0  0  0
   68.8744  152.0736  -50.8073 O   0  0  0  0  0  0  0  0  0  0  0  0
   65.9968  153.1109  -48.2867 S   0  0  0  0  0  0  0  0  0  0  0  0
   64.9627  154.1216  -49.2509 C   0  0  0  0  0  0  0  0  0  0  0  0
   63.8674  154.7417  -48.7699 N   0  0  0  0  0  0  0  0  0  0  0  0
   63.1614  154.4577  -47.5945 C   0  0  0  0  0  0  0  0  0  0  0  0
   62.3809  155.4814  -47.0573 C   0  0  0  0  0  0  0  0  0  0  0  0
   61.6541  155.2077  -45.9244 C   0  0  0  0  0  0  0  0  0  0  0  0
   61.6324  153.9811  -45.3001 C   0  0  0  0  0  0  0  0  0  0  0  0
   62.4083  152.9756  -45.8527 C   0  0  0  0  0  0  0  0  0  0  0  0
   63.1612  153.1993  -46.9921 C   0  0  0  0  0  0  0  0  0  0  0  0
   60.9097  156.2185  -45.3894 F   0  0  0  0  0  0  0  0  0  0  0  0
   66.6291  154.1334  -52.7342 H   0  0  0  0  0  0  0  0  0  0  0  0
   67.8442  153.0442  -52.0926 H   0  0  0  0  0  0  0  0  0  0  0  0
   66.6013  150.4885  -48.1334 H   0  0  0  0  0  0  0  0  0  0  0  0
   67.3597  148.7954  -46.5329 H   0  0  0  0  0  0  0  0  0  0  0  0
   69.7749  148.3926  -46.2152 H   0  0  0  0  0  0  0  0  0  0  0  0
   71.4239  149.7029  -47.5098 H   0  0  0  0  0  0  0  0  0  0  0  0
   70.6527  151.4023  -49.1282 H   0  0  0  0  0  0  0  0  0  0  0  0
   63.4346  155.4340  -49.3846 H   0  0  0  0  0  0  0  0  0  0  0  0
   62.3226  156.4432  -47.5404 H   0  0  0  0  0  0  0  0  0  0  0  0
   61.0243  153.8071  -44.4272 H   0  0  0  0  0  0  0  0  0  0  0  0
   62.3905  151.9998  -45.3958 H   0  0  0  0  0  0  0  0  0  0  0  0
   63.7047  152.3829  -47.4338 H   0  0  0  0  0  0  0  0  0  0  0  0
  1 14  2  0
  2  1  1  0
  2  4  2  0
  3  2  1  0
  3 23  1  0
  3 24  1  0
  4 13  1  0
  5  4  1  0
  5  6  1  0
  6 11  1  0
  6  7  2  0
  7  8  1  0
  7 25  1  0
  8  9  2  0
  8 26  1  0
  9 27  1  0
 10  9  1  0
 10 28  1  0
 11 10  2  0
 11 29  1  0
 12  5  2  0
 14 15  1  0
 14 13  1  0
 15 16  1  0
 15 30  1  0
 16 17  2  0
 16 21  1  0
 17 18  1  0
 17 31  1  0
 18 22  1  0
 18 19  2  0
 19 32  1  0
 20 19  1  0
 20 33  1  0
 21 20  2  0
 21 34  1  0
M  END
>  <lm5_entropy_jk>  (1) 
20.581653483104166

>  <number_of_rotatable_bonds>  (1) 
4

>  <IC50_NM>  (1) 
5700

>  <charge>  (1) 
0

$$$$
