3R9N
     RDKit          3D

 42 44  0  0  1  0  0  0  0  0999 V2000
   67.8715  150.7313  -44.1955 N   0  0  0  0  0  0  0  0  0  0  0  0
   65.5762  154.5941  -50.0488 N   0  0  0  0  0  0  0  0  0  0  0  0
   64.1258  155.2615  -48.3125 N   0  0  0  0  0  0  0  0  0  0  0  0
   67.2323  153.6726  -51.4345 N   0  0  0  0  0  0  0  0  0  0  0  0
   68.1092  149.0484  -45.9493 C   0  0  0  0  0  0  0  0  0  0  0  0
   68.0110  150.3795  -45.6106 C   0  0  0  0  0  0  0  0  0  0  0  0
   68.0136  151.4018  -46.5375 C   0  0  0  0  0  0  0  0  0  0  0  0
   68.1690  151.0925  -47.8817 C   0  0  0  0  0  0  0  0  0  0  0  0
   68.3488  149.7582  -48.2378 C   0  0  0  0  0  0  0  0  0  0  0  0
   68.3023  148.7510  -47.2871 C   0  0  0  0  0  0  0  0  0  0  0  0
   68.1375  152.1154  -49.0008 C   0  0  0  0  0  0  0  0  0  0  0  0
   67.0194  153.0006  -49.1127 C   0  0  0  0  0  0  0  0  0  0  0  0
   66.6360  153.7449  -50.2304 C   0  0  0  0  0  0  0  0  0  0  0  0
   65.0831  154.4481  -48.8375 C   0  0  0  0  0  0  0  0  0  0  0  0
   63.5386  155.0466  -46.9831 C   0  0  0  0  0  0  0  0  0  0  0  0
   62.5809  153.8608  -46.8714 C   0  0  0  0  0  0  0  0  0  0  0  0
   62.0543  153.7305  -45.4364 C   0  0  0  0  0  0  0  0  0  0  0  0
   61.3592  155.0008  -44.9555 C   0  0  0  0  0  0  0  0  0  0  0  0
   62.2836  156.2029  -45.1126 C   0  0  0  0  0  0  0  0  0  0  0  0
   62.8195  156.3171  -46.5400 C   0  0  0  0  0  0  0  0  0  0  0  0
   68.4273  151.7484  -43.8277 O   0  0  0  0  0  0  0  0  0  0  0  0
   67.2331  149.9799  -43.4903 O   0  0  0  0  0  0  0  0  0  0  0  0
   69.0667  152.1215  -49.8058 O   0  0  0  0  0  0  0  0  0  0  0  0
   65.8189  153.2316  -47.8689 S   0  0  0  0  0  0  0  0  0  0  0  0
   68.0261  148.2812  -45.1912 H   0  0  0  0  0  0  0  0  0  0  0  0
   67.8841  152.4064  -46.1777 H   0  0  0  0  0  0  0  0  0  0  0  0
   63.4558  155.5675  -49.0186 H   0  0  0  0  0  0  0  0  0  0  0  0
   66.9039  154.2015  -52.2373 H   0  0  0  0  0  0  0  0  0  0  0  0
   68.0290  153.0752  -51.5523 H   0  0  0  0  0  0  0  0  0  0  0  0
   68.4896  149.5039  -49.2756 H   0  0  0  0  0  0  0  0  0  0  0  0
   68.3780  147.7181  -47.5820 H   0  0  0  0  0  0  0  0  0  0  0  0
   64.3682  154.8686  -46.2981 H   0  0  0  0  0  0  0  0  0  0  0  0
   63.0819  152.9380  -47.1626 H   0  0  0  0  0  0  0  0  0  0  0  0
   61.7463  154.0153  -47.5617 H   0  0  0  0  0  0  0  0  0  0  0  0
   62.8898  153.5040  -44.7649 H   0  0  0  0  0  0  0  0  0  0  0  0
   61.3750  152.8839  -45.3664 H   0  0  0  0  0  0  0  0  0  0  0  0
   61.0500  154.8887  -43.9156 H   0  0  0  0  0  0  0  0  0  0  0  0
   60.4487  155.1672  -45.5358 H   0  0  0  0  0  0  0  0  0  0  0  0
   61.7599  157.1219  -44.8514 H   0  0  0  0  0  0  0  0  0  0  0  0
   63.1229  156.1101  -44.4159 H   0  0  0  0  0  0  0  0  0  0  0  0
   61.9841  156.4925  -47.2284 H   0  0  0  0  0  0  0  0  0  0  0  0
   63.4971  157.1614  -46.6143 H   0  0  0  0  0  0  0  0  0  0  0  0
  1  6  1  0
  1 21  1  0
  1 22  2  0
  2 13  1  0
  2 14  2  0
  3 14  1  0
  3 15  1  0
  3 27  1  0
  4 13  1  0
  4 28  1  0
  4 29  1  0
  5  6  2  0
  5 10  1  0
  5 25  1  0
  6  7  1  0
  7  8  2  0
  7 26  1  0
  8  9  1  0
  9 10  2  0
  9 30  1  0
 10 31  1  0
 11  8  1  0
 11 12  1  0
 11 23  2  0
 12 13  2  0
 12 24  1  0
 14 24  1  0
 15 16  1  0
 15 20  1  0
 15 32  1  0
 16 17  1  0
 16 33  1  0
 16 34  1  0
 17 18  1  0
 17 35  1  0
 17 36  1  0
 18 19  1  0
 18 37  1  0
 18 38  1  0
 19 20  1  0
 19 39  1  0
 19 40  1  0
 20 41  1  0
 20 42  1  0
M  CHG  2   1   1  21  -1
M  END
>  <lm5_entropy_jk>  (1) 
22.585594734129973

>  <number_of_rotatable_bonds>  (1) 
5

>  <IC50_NM>  (1) 
1400

>  <charge>  (1) 
0

$$$$
