3QTU
     RDKit          3D

 44 46  0  0  0  0  0  0  0  0999 V2000
   65.7860  154.0565  -50.7413 N   0  0  0  0  0  0  0  0  0  0  0  0
   64.2434  154.5902  -49.0847 N   0  0  0  0  0  0  0  0  0  0  0  0
   67.5091  153.2669  -52.1113 N   0  0  0  0  0  0  0  0  0  0  0  0
   61.6892  152.7398  -43.2319 N   0  0  0  0  0  0  0  0  0  0  0  0
   70.0549  146.6479  -45.6477 N   0  0  0  0  0  0  0  0  0  0  0  0
   67.3100  152.5132  -49.8344 C   0  0  0  0  0  0  0  0  0  0  0  0
   66.8940  153.2687  -50.9374 C   0  0  0  0  0  0  0  0  0  0  0  0
   65.3256  153.9085  -49.5213 C   0  0  0  0  0  0  0  0  0  0  0  0
   63.4730  154.3067  -47.9508 C   0  0  0  0  0  0  0  0  0  0  0  0
   68.3925  151.5908  -49.8735 C   0  0  0  0  0  0  0  0  0  0  0  0
   68.7608  150.7480  -48.6785 C   0  0  0  0  0  0  0  0  0  0  0  0
   62.7836  155.3556  -47.3477 C   0  0  0  0  0  0  0  0  0  0  0  0
   61.9959  155.1269  -46.2361 C   0  0  0  0  0  0  0  0  0  0  0  0
   61.9000  153.8439  -45.7260 C   0  0  0  0  0  0  0  0  0  0  0  0
   62.5558  152.7814  -46.3356 C   0  0  0  0  0  0  0  0  0  0  0  0
   63.3321  153.0088  -47.4533 C   0  0  0  0  0  0  0  0  0  0  0  0
   70.1147  150.6090  -48.4058 C   0  0  0  0  0  0  0  0  0  0  0  0
   70.5300  149.8262  -47.3453 C   0  0  0  0  0  0  0  0  0  0  0  0
   69.5897  149.1741  -46.5669 C   0  0  0  0  0  0  0  0  0  0  0  0
   68.2323  149.2710  -46.8460 C   0  0  0  0  0  0  0  0  0  0  0  0
   67.8234  150.0642  -47.9079 C   0  0  0  0  0  0  0  0  0  0  0  0
   69.0844  151.4562  -50.8896 O   0  0  0  0  0  0  0  0  0  0  0  0
   59.8605  152.5449  -44.7942 O   0  0  0  0  0  0  0  0  0  0  0  0
   60.3543  154.7723  -43.8705 O   0  0  0  0  0  0  0  0  0  0  0  0
   71.5409  148.4569  -44.9773 O   0  0  0  0  0  0  0  0  0  0  0  0
   69.2061  148.4251  -44.1230 O   0  0  0  0  0  0  0  0  0  0  0  0
   66.2387  152.8352  -48.4971 S   0  0  0  0  0  0  0  0  0  0  0  0
   60.8426  153.5103  -44.3635 S   0  0  0  0  0  0  0  0  0  0  0  0
   70.1309  148.1904  -45.1877 S   0  0  0  0  0  0  0  0  0  0  0  0
   63.8873  155.3427  -49.6733 H   0  0  0  0  0  0  0  0  0  0  0  0
   67.1585  153.8206  -52.8793 H   0  0  0  0  0  0  0  0  0  0  0  0
   68.2991  152.6449  -52.1863 H   0  0  0  0  0  0  0  0  0  0  0  0
   61.8270  151.7445  -43.4621 H   0  0  0  0  0  0  0  0  0  0  0  0
   62.5056  153.2172  -42.8813 H   0  0  0  0  0  0  0  0  0  0  0  0
   70.9134  146.3556  -46.1234 H   0  0  0  0  0  0  0  0  0  0  0  0
   69.2035  146.4202  -46.1864 H   0  0  0  0  0  0  0  0  0  0  0  0
   62.8333  156.3370  -47.7872 H   0  0  0  0  0  0  0  0  0  0  0  0
   61.4394  155.9309  -45.7812 H   0  0  0  0  0  0  0  0  0  0  0  0
   62.4491  151.7817  -45.9401 H   0  0  0  0  0  0  0  0  0  0  0  0
   63.7872  152.1761  -47.9606 H   0  0  0  0  0  0  0  0  0  0  0  0
   70.8361  151.1045  -49.0375 H   0  0  0  0  0  0  0  0  0  0  0  0
   71.5759  149.7106  -47.1255 H   0  0  0  0  0  0  0  0  0  0  0  0
   67.5033  148.7318  -46.2611 H   0  0  0  0  0  0  0  0  0  0  0  0
   66.7720  150.1130  -48.1487 H   0  0  0  0  0  0  0  0  0  0  0  0
  1  8  2  0
  2  9  1  0
  2 30  1  0
  3  7  1  0
  3 31  1  0
  3 32  1  0
  4 33  1  0
  4 34  1  0
  5 29  1  0
  5 35  1  0
  5 36  1  0
  6 27  1  0
  7  1  1  0
  7  6  2  0
  8  2  1  0
  8 27  1  0
  9 12  2  0
  9 16  1  0
 10  6  1  0
 10 11  1  0
 11 17  2  0
 11 21  1  0
 12 13  1  0
 12 37  1  0
 13 14  2  0
 13 38  1  0
 14 28  1  0
 15 14  1  0
 15 39  1  0
 16 15  2  0
 16 40  1  0
 17 18  1  0
 17 41  1  0
 18 19  2  0
 18 42  1  0
 19 29  1  0
 20 19  1  0
 20 43  1  0
 21 20  2  0
 21 44  1  0
 22 10  2  0
 23 28  2  0
 28 24  2  0
 28  4  1  0
 29 25  2  0
 29 26  2  0
M  END
>  <lm5_entropy_jk>  (1) 
23.933690845995674

>  <number_of_rotatable_bonds>  (1) 
6

>  <IC50_NM>  (1) 
70

>  <charge>  (1) 
0

$$$$
