3S0O
     RDKit          3D

 30 31  0  0  1  0  0  0  0  0999 V2000
   65.7356  154.5822  -50.2241 N   0  0  0  0  0  0  0  0  0  0  0  0
   67.2359  153.4687  -51.6122 N   0  0  0  0  0  0  0  0  0  0  0  0
   67.6374  151.3991  -46.8918 N   0  0  0  0  0  0  0  0  0  0  0  0
   64.4062  155.4392  -48.5052 N   0  0  0  0  0  0  0  0  0  0  0  0
   66.6881  153.6208  -50.4049 C   0  0  0  0  0  0  0  0  0  0  0  0
   66.9949  152.8392  -49.2812 C   0  0  0  0  0  0  0  0  0  0  0  0
   67.8882  151.7270  -49.2899 C   0  0  0  0  0  0  0  0  0  0  0  0
   68.0001  150.8663  -48.0575 C   0  0  0  0  0  0  0  0  0  0  0  0
   67.6467  150.6095  -45.8244 C   0  0  0  0  0  0  0  0  0  0  0  0
   68.0157  149.2725  -45.8646 C   0  0  0  0  0  0  0  0  0  0  0  0
   68.4438  148.7432  -47.0691 C   0  0  0  0  0  0  0  0  0  0  0  0
   68.4457  149.5586  -48.1881 C   0  0  0  0  0  0  0  0  0  0  0  0
   65.2695  154.5377  -48.9852 C   0  0  0  0  0  0  0  0  0  0  0  0
   63.6910  155.3135  -47.2409 C   0  0  0  0  0  0  0  0  0  0  0  0
   62.8406  154.0789  -47.1294 C   0  0  0  0  0  0  0  0  0  0  0  0
   62.8584  153.2901  -46.0677 C   0  0  0  0  0  0  0  0  0  0  0  0
   68.5369  151.4069  -50.2930 O   0  0  0  0  0  0  0  0  0  0  0  0
   65.9129  153.2842  -47.9758 S   0  0  0  0  0  0  0  0  0  0  0  0
   67.0020  154.0971  -52.3676 H   0  0  0  0  0  0  0  0  0  0  0  0
   67.9569  152.7707  -51.6907 H   0  0  0  0  0  0  0  0  0  0  0  0
   67.3638  151.0798  -44.8915 H   0  0  0  0  0  0  0  0  0  0  0  0
   67.9803  148.6653  -44.9743 H   0  0  0  0  0  0  0  0  0  0  0  0
   68.7661  147.7167  -47.1255 H   0  0  0  0  0  0  0  0  0  0  0  0
   68.7700  149.2120  -49.1535 H   0  0  0  0  0  0  0  0  0  0  0  0
   63.9242  155.9772  -49.2105 H   0  0  0  0  0  0  0  0  0  0  0  0
   63.0480  156.1896  -47.1787 H   0  0  0  0  0  0  0  0  0  0  0  0
   64.3889  155.3612  -46.4061 H   0  0  0  0  0  0  0  0  0  0  0  0
   62.1946  153.8928  -47.9781 H   0  0  0  0  0  0  0  0  0  0  0  0
   63.5076  153.5071  -45.2279 H   0  0  0  0  0  0  0  0  0  0  0  0
   62.2311  152.4168  -45.9942 H   0  0  0  0  0  0  0  0  0  0  0  0
  1  5  1  0
  1 13  2  0
  2  5  1  0
  2 19  1  0
  2 20  1  0
  3  8  2  0
  3  9  1  0
  4 13  1  0
  4 14  1  0
  4 25  1  0
  5  6  2  0
  6 18  1  0
  7  6  1  0
  7  8  1  0
  7 17  2  0
  8 12  1  0
  9 10  2  0
  9 21  1  0
 10 11  1  0
 10 22  1  0
 11 12  2  0
 11 23  1  0
 12 24  1  0
 13 18  1  0
 14 15  1  0
 14 26  1  0
 14 27  1  0
 15 16  2  0
 15 28  1  0
 16 29  1  0
 16 30  1  0
M  END
>  <lm5_entropy_jk>  (1) 
21.884956070842478

>  <number_of_rotatable_bonds>  (1) 
5

>  <IC50_NM>  (1) 
33000

>  <charge>  (1) 
0

$$$$
