3SQQ
     RDKit          3D

 42 44  0  0  0  0  0  0  0  0999 V2000
   65.9093  154.4176  -50.3805 N   0  0  0  0  0  0  0  0  0  0  0  0
   64.6121  154.9068  -48.5056 N   0  0  0  0  0  0  0  0  0  0  0  0
   67.3488  153.5678  -52.0321 N   0  0  0  0  0  0  0  0  0  0  0  0
   61.7583  152.8940  -42.7383 N   0  0  0  0  0  0  0  0  0  0  0  0
   67.4724  152.7699  -49.7691 C   0  0  0  0  0  0  0  0  0  0  0  0
   66.9345  153.5863  -50.7679 C   0  0  0  0  0  0  0  0  0  0  0  0
   65.6036  154.1988  -49.1232 C   0  0  0  0  0  0  0  0  0  0  0  0
   63.8170  154.5662  -47.3992 C   0  0  0  0  0  0  0  0  0  0  0  0
   68.3982  151.7002  -50.0018 C   0  0  0  0  0  0  0  0  0  0  0  0
   68.6765  150.7101  -48.9042 C   0  0  0  0  0  0  0  0  0  0  0  0
   69.9703  150.2229  -48.6816 C   0  0  0  0  0  0  0  0  0  0  0  0
   70.1594  149.3384  -47.6241 C   0  0  0  0  0  0  0  0  0  0  0  0
   69.1111  148.8879  -46.8414 C   0  0  0  0  0  0  0  0  0  0  0  0
   67.8237  149.3190  -47.1096 C   0  0  0  0  0  0  0  0  0  0  0  0
   67.6194  150.2240  -48.1349 C   0  0  0  0  0  0  0  0  0  0  0  0
   63.8629  153.3397  -46.7327 C   0  0  0  0  0  0  0  0  0  0  0  0
   63.0289  153.0840  -45.6548 C   0  0  0  0  0  0  0  0  0  0  0  0
   62.1349  154.0528  -45.2181 C   0  0  0  0  0  0  0  0  0  0  0  0
   62.0768  155.2760  -45.8744 C   0  0  0  0  0  0  0  0  0  0  0  0
   62.8996  155.5263  -46.9553 C   0  0  0  0  0  0  0  0  0  0  0  0
   71.1477  150.5914  -49.5412 C   0  0  0  0  0  0  0  0  0  0  0  0
   68.9494  151.5848  -51.1001 O   0  0  0  0  0  0  0  0  0  0  0  0
   60.6780  155.0736  -43.3124 O   0  0  0  0  0  0  0  0  0  0  0  0
   59.9345  152.9777  -44.3531 O   0  0  0  0  0  0  0  0  0  0  0  0
   66.5974  153.0690  -48.2922 S   0  0  0  0  0  0  0  0  0  0  0  0
   61.0091  153.7891  -43.8623 S   0  0  0  0  0  0  0  0  0  0  0  0
   64.1890  155.5949  -49.1090 H   0  0  0  0  0  0  0  0  0  0  0  0
   66.9718  154.1776  -52.7366 H   0  0  0  0  0  0  0  0  0  0  0  0
   68.1030  152.9257  -52.2287 H   0  0  0  0  0  0  0  0  0  0  0  0
   61.8512  151.8886  -43.0447 H   0  0  0  0  0  0  0  0  0  0  0  0
   62.6184  153.3106  -42.3948 H   0  0  0  0  0  0  0  0  0  0  0  0
   71.1470  148.9472  -47.4375 H   0  0  0  0  0  0  0  0  0  0  0  0
   69.2847  148.1621  -46.0576 H   0  0  0  0  0  0  0  0  0  0  0  0
   66.9836  148.9421  -46.5410 H   0  0  0  0  0  0  0  0  0  0  0  0
   66.6101  150.5283  -48.3551 H   0  0  0  0  0  0  0  0  0  0  0  0
   64.5297  152.5582  -47.0556 H   0  0  0  0  0  0  0  0  0  0  0  0
   63.0721  152.1203  -45.1630 H   0  0  0  0  0  0  0  0  0  0  0  0
   61.3776  156.0302  -45.5361 H   0  0  0  0  0  0  0  0  0  0  0  0
   62.8062  156.4653  -47.4819 H   0  0  0  0  0  0  0  0  0  0  0  0
   70.9146  150.4466  -50.5914 H   0  0  0  0  0  0  0  0  0  0  0  0
   71.9989  149.9706  -49.2745 H   0  0  0  0  0  0  0  0  0  0  0  0
   71.4131  151.6413  -49.4200 H   0  0  0  0  0  0  0  0  0  0  0  0
  1  7  2  0
  2  8  1  0
  2 27  1  0
  3  6  1  0
  3 28  1  0
  3 29  1  0
  4 30  1  0
  4 31  1  0
  5 25  1  0
  6  1  1  0
  6  5  2  0
  7  2  1  0
  7 25  1  0
  8 20  1  0
  8 16  2  0
  9  5  1  0
  9 10  1  0
 10 11  2  0
 10 15  1  0
 11 12  1  0
 12 13  2  0
 12 32  1  0
 13 33  1  0
 14 13  1  0
 14 34  1  0
 15 14  2  0
 15 35  1  0
 16 17  1  0
 16 36  1  0
 17 18  2  0
 17 37  1  0
 18 26  1  0
 19 18  1  0
 19 38  1  0
 20 19  2  0
 20 39  1  0
 21 11  1  0
 21 40  1  0
 21 41  1  0
 21 42  1  0
 22  9  2  0
 24 26  2  0
 26 23  2  0
 26  4  1  0
M  END
>  <lm5_entropy_jk>  (1) 
31.418959509749985

>  <number_of_rotatable_bonds>  (1) 
5

>  <IC50_NM>  (1) 
4800

>  <charge>  (1) 
0

$$$$
