3SQQ
     RDKit          3D

 42 44  0  0  0  0  0  0  0  0999 V2000
   65.9122  154.4188  -50.3862 N   0  0  0  0  0  0  0  0  0  0  0  0
   64.6132  154.9090  -48.5106 N   0  0  0  0  0  0  0  0  0  0  0  0
   67.3481  153.5688  -52.0395 N   0  0  0  0  0  0  0  0  0  0  0  0
   61.7558  152.8898  -42.7404 N   0  0  0  0  0  0  0  0  0  0  0  0
   67.4738  152.7725  -49.7756 C   0  0  0  0  0  0  0  0  0  0  0  0
   66.9361  153.5873  -50.7749 C   0  0  0  0  0  0  0  0  0  0  0  0
   65.6065  154.2031  -49.1284 C   0  0  0  0  0  0  0  0  0  0  0  0
   63.8222  154.5669  -47.4003 C   0  0  0  0  0  0  0  0  0  0  0  0
   68.3974  151.6994  -50.0069 C   0  0  0  0  0  0  0  0  0  0  0  0
   68.6764  150.7094  -48.9047 C   0  0  0  0  0  0  0  0  0  0  0  0
   69.9704  150.2210  -48.6804 C   0  0  0  0  0  0  0  0  0  0  0  0
   70.1577  149.3385  -47.6211 C   0  0  0  0  0  0  0  0  0  0  0  0
   69.1085  148.8906  -46.8384 C   0  0  0  0  0  0  0  0  0  0  0  0
   67.8220  149.3225  -47.1068 C   0  0  0  0  0  0  0  0  0  0  0  0
   67.6181  150.2259  -48.1338 C   0  0  0  0  0  0  0  0  0  0  0  0
   63.8716  153.3419  -46.7306 C   0  0  0  0  0  0  0  0  0  0  0  0
   63.0418  153.0863  -45.6477 C   0  0  0  0  0  0  0  0  0  0  0  0
   62.1466  154.0559  -45.2092 C   0  0  0  0  0  0  0  0  0  0  0  0
   62.0827  155.2751  -45.8729 C   0  0  0  0  0  0  0  0  0  0  0  0
   62.9017  155.5237  -46.9570 C   0  0  0  0  0  0  0  0  0  0  0  0
   71.1461  150.5900  -49.5409 C   0  0  0  0  0  0  0  0  0  0  0  0
   68.9453  151.5789  -51.1065 O   0  0  0  0  0  0  0  0  0  0  0  0
   60.6836  155.0747  -43.3006 O   0  0  0  0  0  0  0  0  0  0  0  0
   59.9378  152.9820  -44.3521 O   0  0  0  0  0  0  0  0  0  0  0  0
   66.6021  153.0769  -48.2967 S   0  0  0  0  0  0  0  0  0  0  0  0
   61.0122  153.7919  -43.8564 S   0  0  0  0  0  0  0  0  0  0  0  0
   64.1861  155.5936  -49.1156 H   0  0  0  0  0  0  0  0  0  0  0  0
   66.9669  154.1758  -52.7426 H   0  0  0  0  0  0  0  0  0  0  0  0
   68.0979  152.9240  -52.2401 H   0  0  0  0  0  0  0  0  0  0  0  0
   61.8469  151.8869  -43.0427 H   0  0  0  0  0  0  0  0  0  0  0  0
   62.6103  153.3013  -42.3836 H   0  0  0  0  0  0  0  0  0  0  0  0
   71.1450  148.9477  -47.4342 H   0  0  0  0  0  0  0  0  0  0  0  0
   69.2821  148.1676  -46.0530 H   0  0  0  0  0  0  0  0  0  0  0  0
   66.9824  148.9485  -46.5368 H   0  0  0  0  0  0  0  0  0  0  0  0
   66.6083  150.5298  -48.3558 H   0  0  0  0  0  0  0  0  0  0  0  0
   64.5395  152.5612  -47.0553 H   0  0  0  0  0  0  0  0  0  0  0  0
   63.0856  152.1171  -45.1632 H   0  0  0  0  0  0  0  0  0  0  0  0
   61.3754  156.0244  -45.5407 H   0  0  0  0  0  0  0  0  0  0  0  0
   62.8003  156.4597  -47.4854 H   0  0  0  0  0  0  0  0  0  0  0  0
   70.9109  150.4541  -50.5909 H   0  0  0  0  0  0  0  0  0  0  0  0
   71.9956  149.9667  -49.2800 H   0  0  0  0  0  0  0  0  0  0  0  0
   71.4143  151.6369  -49.4121 H   0  0  0  0  0  0  0  0  0  0  0  0
  1  7  2  0
  2  8  1  0
  2 27  1  0
  3  6  1  0
  3 28  1  0
  3 29  1  0
  4 30  1  0
  4 31  1  0
  5 25  1  0
  6  1  1  0
  6  5  2  0
  7  2  1  0
  7 25  1  0
  8 20  1  0
  8 16  2  0
  9  5  1  0
  9 10  1  0
 10 11  2  0
 10 15  1  0
 11 12  1  0
 12 13  2  0
 12 32  1  0
 13 33  1  0
 14 13  1  0
 14 34  1  0
 15 14  2  0
 15 35  1  0
 16 17  1  0
 16 36  1  0
 17 18  2  0
 17 37  1  0
 18 26  1  0
 19 18  1  0
 19 38  1  0
 20 19  2  0
 20 39  1  0
 21 11  1  0
 21 40  1  0
 21 41  1  0
 21 42  1  0
 22  9  2  0
 24 26  2  0
 26 23  2  0
 26  4  1  0
M  END
>  <lm5_entropy_jk>  (1) 
31.418959509749985

>  <number_of_rotatable_bonds>  (1) 
5

>  <IC50_NM>  (1) 
4800

>  <charge>  (1) 
0

$$$$
