3R9D
     RDKit          3D

 41 43  0  0  0  0  0  0  0  0999 V2000
   65.6629  154.5571  -50.4419 N   0  0  0  0  0  0  0  0  0  0  0  0
   64.1996  154.9506  -48.6749 N   0  0  0  0  0  0  0  0  0  0  0  0
   68.7668  151.5680  -48.5784 N   0  0  0  0  0  0  0  0  0  0  0  0
   67.3107  153.8398  -51.9465 N   0  0  0  0  0  0  0  0  0  0  0  0
   61.5763  153.0090  -42.7584 N   0  0  0  0  0  0  0  0  0  0  0  0
   67.3675  153.1583  -49.6507 C   0  0  0  0  0  0  0  0  0  0  0  0
   66.8115  153.8523  -50.7132 C   0  0  0  0  0  0  0  0  0  0  0  0
   65.2896  154.3555  -49.1965 C   0  0  0  0  0  0  0  0  0  0  0  0
   63.5342  154.6720  -47.4742 C   0  0  0  0  0  0  0  0  0  0  0  0
   68.5390  152.3338  -49.7059 C   0  0  0  0  0  0  0  0  0  0  0  0
   62.7191  155.6752  -46.9501 C   0  0  0  0  0  0  0  0  0  0  0  0
   61.9523  155.4449  -45.8251 C   0  0  0  0  0  0  0  0  0  0  0  0
   62.0170  154.2030  -45.2071 C   0  0  0  0  0  0  0  0  0  0  0  0
   62.8407  153.2024  -45.7023 C   0  0  0  0  0  0  0  0  0  0  0  0
   63.5987  153.4354  -46.8310 C   0  0  0  0  0  0  0  0  0  0  0  0
   69.7536  150.5959  -48.4019 C   0  0  0  0  0  0  0  0  0  0  0  0
   69.4831  149.5838  -47.4784 C   0  0  0  0  0  0  0  0  0  0  0  0
   70.4154  148.5963  -47.2431 C   0  0  0  0  0  0  0  0  0  0  0  0
   71.6255  148.5952  -47.9337 C   0  0  0  0  0  0  0  0  0  0  0  0
   71.8586  149.6120  -48.8356 C   0  0  0  0  0  0  0  0  0  0  0  0
   70.9626  150.6275  -49.0900 C   0  0  0  0  0  0  0  0  0  0  0  0
   69.2859  152.3094  -50.6841 O   0  0  0  0  0  0  0  0  0  0  0  0
   59.9324  152.8659  -44.5313 O   0  0  0  0  0  0  0  0  0  0  0  0
   60.3316  155.0553  -43.4393 O   0  0  0  0  0  0  0  0  0  0  0  0
   66.3373  153.3253  -48.2705 S   0  0  0  0  0  0  0  0  0  0  0  0
   60.8578  153.8070  -43.9455 S   0  0  0  0  0  0  0  0  0  0  0  0
   73.0316  149.5996  -49.5192 F   0  0  0  0  0  0  0  0  0  0  0  0
   63.6928  155.5586  -49.3139 H   0  0  0  0  0  0  0  0  0  0  0  0
   68.0054  151.4975  -47.9235 H   0  0  0  0  0  0  0  0  0  0  0  0
   66.8922  154.3592  -52.7001 H   0  0  0  0  0  0  0  0  0  0  0  0
   68.1717  153.3325  -52.0766 H   0  0  0  0  0  0  0  0  0  0  0  0
   61.8103  152.0341  -43.0043 H   0  0  0  0  0  0  0  0  0  0  0  0
   62.2375  153.5385  -42.2134 H   0  0  0  0  0  0  0  0  0  0  0  0
   62.6640  156.6309  -47.4486 H   0  0  0  0  0  0  0  0  0  0  0  0
   61.2876  156.2078  -45.4488 H   0  0  0  0  0  0  0  0  0  0  0  0
   62.8436  152.2252  -45.2348 H   0  0  0  0  0  0  0  0  0  0  0  0
   64.1925  152.6272  -47.2163 H   0  0  0  0  0  0  0  0  0  0  0  0
   68.5255  149.5508  -46.9723 H   0  0  0  0  0  0  0  0  0  0  0  0
   70.1988  147.7845  -46.5611 H   0  0  0  0  0  0  0  0  0  0  0  0
   72.2931  147.7515  -47.8140 H   0  0  0  0  0  0  0  0  0  0  0  0
   71.1720  151.3858  -49.8226 H   0  0  0  0  0  0  0  0  0  0  0  0
  1  8  2  0
  2  9  1  0
  2 28  1  0
  3 16  1  0
  3 29  1  0
  4  7  1  0
  4 30  1  0
  4 31  1  0
  5 32  1  0
  5 33  1  0
  6 25  1  0
  7  1  1  0
  7  6  2  0
  8  2  1  0
  8 25  1  0
  9 11  2  0
  9 15  1  0
 10  6  1  0
 10  3  1  0
 11 12  1  0
 11 34  1  0
 12 13  2  0
 12 35  1  0
 13 26  1  0
 14 13  1  0
 14 36  1  0
 15 14  2  0
 15 37  1  0
 16 17  2  0
 17 18  1  0
 17 38  1  0
 18 39  1  0
 19 18  2  0
 19 40  1  0
 20 19  1  0
 21 20  2  0
 21 16  1  0
 21 41  1  0
 22 10  2  0
 23 26  2  0
 26 24  2  0
 26  5  1  0
 27 20  1  0
M  END
>  <lm5_entropy_jk>  (1) 
21.052089499889224

>  <number_of_rotatable_bonds>  (1) 
6

>  <IC50_NM>  (1) 
71000

>  <charge>  (1) 
0

$$$$
