3R9D
     RDKit          3D

 41 43  0  0  0  0  0  0  0  0999 V2000
   65.6652  154.5603  -50.4353 N   0  0  0  0  0  0  0  0  0  0  0  0
   64.2096  154.9520  -48.6631 N   0  0  0  0  0  0  0  0  0  0  0  0
   68.7732  151.5781  -48.5827 N   0  0  0  0  0  0  0  0  0  0  0  0
   67.2977  153.8292  -51.9517 N   0  0  0  0  0  0  0  0  0  0  0  0
   61.5581  153.0296  -42.7655 N   0  0  0  0  0  0  0  0  0  0  0  0
   67.3793  153.1789  -49.6436 C   0  0  0  0  0  0  0  0  0  0  0  0
   66.8143  153.8588  -50.7110 C   0  0  0  0  0  0  0  0  0  0  0  0
   65.2985  154.3581  -49.1883 C   0  0  0  0  0  0  0  0  0  0  0  0
   63.5321  154.6655  -47.4722 C   0  0  0  0  0  0  0  0  0  0  0  0
   68.5470  152.3534  -49.7038 C   0  0  0  0  0  0  0  0  0  0  0  0
   62.7148  155.6702  -46.9566 C   0  0  0  0  0  0  0  0  0  0  0  0
   61.9437  155.4430  -45.8355 C   0  0  0  0  0  0  0  0  0  0  0  0
   62.0037  154.2043  -45.2148 C   0  0  0  0  0  0  0  0  0  0  0  0
   62.8236  153.1968  -45.7054 C   0  0  0  0  0  0  0  0  0  0  0  0
   63.5824  153.4240  -46.8365 C   0  0  0  0  0  0  0  0  0  0  0  0
   69.7582  150.6040  -48.4084 C   0  0  0  0  0  0  0  0  0  0  0  0
   69.4936  149.5890  -47.4848 C   0  0  0  0  0  0  0  0  0  0  0  0
   70.4264  148.5978  -47.2612 C   0  0  0  0  0  0  0  0  0  0  0  0
   71.6376  148.6052  -47.9505 C   0  0  0  0  0  0  0  0  0  0  0  0
   71.8630  149.6236  -48.8525 C   0  0  0  0  0  0  0  0  0  0  0  0
   70.9618  150.6341  -49.1057 C   0  0  0  0  0  0  0  0  0  0  0  0
   69.2880  152.3379  -50.6866 O   0  0  0  0  0  0  0  0  0  0  0  0
   59.9055  152.8924  -44.5366 O   0  0  0  0  0  0  0  0  0  0  0  0
   60.3185  155.0775  -43.4419 O   0  0  0  0  0  0  0  0  0  0  0  0
   66.3568  153.3425  -48.2591 S   0  0  0  0  0  0  0  0  0  0  0  0
   60.8383  153.8278  -43.9528 S   0  0  0  0  0  0  0  0  0  0  0  0
   73.0337  149.6140  -49.5380 F   0  0  0  0  0  0  0  0  0  0  0  0
   63.7171  155.5799  -49.2925 H   0  0  0  0  0  0  0  0  0  0  0  0
   68.0200  151.5231  -47.9171 H   0  0  0  0  0  0  0  0  0  0  0  0
   66.8867  154.3551  -52.7066 H   0  0  0  0  0  0  0  0  0  0  0  0
   68.1721  153.3447  -52.0790 H   0  0  0  0  0  0  0  0  0  0  0  0
   61.7768  152.0537  -43.0200 H   0  0  0  0  0  0  0  0  0  0  0  0
   62.2729  153.5512  -42.2827 H   0  0  0  0  0  0  0  0  0  0  0  0
   62.6556  156.6189  -47.4666 H   0  0  0  0  0  0  0  0  0  0  0  0
   61.2791  156.2016  -45.4535 H   0  0  0  0  0  0  0  0  0  0  0  0
   62.8265  152.2246  -45.2274 H   0  0  0  0  0  0  0  0  0  0  0  0
   64.1603  152.6141  -47.2440 H   0  0  0  0  0  0  0  0  0  0  0  0
   68.5418  149.5539  -46.9664 H   0  0  0  0  0  0  0  0  0  0  0  0
   70.2065  147.7728  -46.5950 H   0  0  0  0  0  0  0  0  0  0  0  0
   72.3140  147.7681  -47.8319 H   0  0  0  0  0  0  0  0  0  0  0  0
   71.1654  151.3892  -49.8427 H   0  0  0  0  0  0  0  0  0  0  0  0
  1  8  2  0
  2  9  1  0
  2 28  1  0
  3 16  1  0
  3 29  1  0
  4  7  1  0
  4 30  1  0
  4 31  1  0
  5 32  1  0
  5 33  1  0
  6 25  1  0
  7  1  1  0
  7  6  2  0
  8  2  1  0
  8 25  1  0
  9 11  2  0
  9 15  1  0
 10  6  1  0
 10  3  1  0
 11 12  1  0
 11 34  1  0
 12 13  2  0
 12 35  1  0
 13 26  1  0
 14 13  1  0
 14 36  1  0
 15 14  2  0
 15 37  1  0
 16 17  2  0
 17 18  1  0
 17 38  1  0
 18 39  1  0
 19 18  2  0
 19 40  1  0
 20 19  1  0
 21 20  2  0
 21 16  1  0
 21 41  1  0
 22 10  2  0
 23 26  2  0
 26 24  2  0
 26  5  1  0
 27 20  1  0
M  END
>  <lm5_entropy_jk>  (1) 
21.052089499889224

>  <number_of_rotatable_bonds>  (1) 
6

>  <IC50_NM>  (1) 
71000

>  <charge>  (1) 
0

$$$$
