3QTU
     RDKit          3D

 44 46  0  0  0  0  0  0  0  0999 V2000
   65.6909  154.3500  -50.6570 N   0  0  0  0  0  0  0  0  0  0  0  0
   64.2028  154.7536  -48.9301 N   0  0  0  0  0  0  0  0  0  0  0  0
   67.3749  153.6852  -52.1391 N   0  0  0  0  0  0  0  0  0  0  0  0
   61.5942  153.0288  -43.0779 N   0  0  0  0  0  0  0  0  0  0  0  0
   70.5105  147.0354  -45.8487 N   0  0  0  0  0  0  0  0  0  0  0  0
   67.3013  152.8225  -49.8944 C   0  0  0  0  0  0  0  0  0  0  0  0
   66.8077  153.6072  -50.9407 C   0  0  0  0  0  0  0  0  0  0  0  0
   65.2834  154.1215  -49.4277 C   0  0  0  0  0  0  0  0  0  0  0  0
   63.5008  154.5066  -47.7452 C   0  0  0  0  0  0  0  0  0  0  0  0
   68.4287  151.9647  -50.0256 C   0  0  0  0  0  0  0  0  0  0  0  0
   68.8661  151.0660  -48.9031 C   0  0  0  0  0  0  0  0  0  0  0  0
   62.6927  155.5433  -47.2770 C   0  0  0  0  0  0  0  0  0  0  0  0
   61.9140  155.3760  -46.1512 C   0  0  0  0  0  0  0  0  0  0  0  0
   61.9561  154.1665  -45.4783 C   0  0  0  0  0  0  0  0  0  0  0  0
   62.7333  153.1119  -45.9426 C   0  0  0  0  0  0  0  0  0  0  0  0
   63.5121  153.2815  -47.0720 C   0  0  0  0  0  0  0  0  0  0  0  0
   70.2351  150.9322  -48.7192 C   0  0  0  0  0  0  0  0  0  0  0  0
   70.7179  150.1490  -47.6900 C   0  0  0  0  0  0  0  0  0  0  0  0
   69.8281  149.4942  -46.8586 C   0  0  0  0  0  0  0  0  0  0  0  0
   68.4576  149.5596  -47.0685 C   0  0  0  0  0  0  0  0  0  0  0  0
   67.9804  150.3520  -48.1000 C   0  0  0  0  0  0  0  0  0  0  0  0
   69.1134  151.9647  -51.0524 O   0  0  0  0  0  0  0  0  0  0  0  0
   59.7561  153.0672  -44.7722 O   0  0  0  0  0  0  0  0  0  0  0  0
   60.3959  155.1299  -43.6011 O   0  0  0  0  0  0  0  0  0  0  0  0
   71.8487  149.0069  -45.3240 O   0  0  0  0  0  0  0  0  0  0  0  0
   69.5485  148.7977  -44.3939 O   0  0  0  0  0  0  0  0  0  0  0  0
   66.2768  153.0363  -48.4986 S   0  0  0  0  0  0  0  0  0  0  0  0
   60.8065  153.8719  -44.1908 S   0  0  0  0  0  0  0  0  0  0  0  0
   70.4666  148.5916  -45.4698 S   0  0  0  0  0  0  0  0  0  0  0  0
   63.7409  155.4077  -49.5683 H   0  0  0  0  0  0  0  0  0  0  0  0
   66.9243  154.1507  -52.9131 H   0  0  0  0  0  0  0  0  0  0  0  0
   68.1315  153.0337  -52.2916 H   0  0  0  0  0  0  0  0  0  0  0  0
   61.5759  152.0113  -43.2422 H   0  0  0  0  0  0  0  0  0  0  0  0
   61.4449  153.3518  -42.1381 H   0  0  0  0  0  0  0  0  0  0  0  0
   71.3101  146.7691  -46.4164 H   0  0  0  0  0  0  0  0  0  0  0  0
   69.6220  146.6129  -46.1489 H   0  0  0  0  0  0  0  0  0  0  0  0
   62.6294  156.4501  -47.8522 H   0  0  0  0  0  0  0  0  0  0  0  0
   61.2525  156.1610  -45.8198 H   0  0  0  0  0  0  0  0  0  0  0  0
   62.6977  152.1550  -45.4405 H   0  0  0  0  0  0  0  0  0  0  0  0
   64.0635  152.4419  -47.4592 H   0  0  0  0  0  0  0  0  0  0  0  0
   70.9107  151.4322  -49.3941 H   0  0  0  0  0  0  0  0  0  0  0  0
   71.7738  150.0456  -47.5210 H   0  0  0  0  0  0  0  0  0  0  0  0
   67.7737  149.0068  -46.4414 H   0  0  0  0  0  0  0  0  0  0  0  0
   66.9169  150.3839  -48.2827 H   0  0  0  0  0  0  0  0  0  0  0  0
  1  8  2  0
  2  9  1  0
  2 30  1  0
  3  7  1  0
  3 31  1  0
  3 32  1  0
  4 33  1  0
  4 34  1  0
  5 29  1  0
  5 35  1  0
  5 36  1  0
  6 27  1  0
  7  1  1  0
  7  6  2  0
  8  2  1  0
  8 27  1  0
  9 12  2  0
  9 16  1  0
 10  6  1  0
 10 11  1  0
 11 17  2  0
 11 21  1  0
 12 13  1  0
 12 37  1  0
 13 14  2  0
 13 38  1  0
 14 28  1  0
 15 14  1  0
 15 39  1  0
 16 15  2  0
 16 40  1  0
 17 18  1  0
 17 41  1  0
 18 19  2  0
 18 42  1  0
 19 29  1  0
 20 19  1  0
 20 43  1  0
 21 20  2  0
 21 44  1  0
 22 10  2  0
 23 28  2  0
 28 24  2  0
 28  4  1  0
 29 25  2  0
 29 26  2  0
M  END
>  <lm5_entropy_jk>  (1) 
23.933690845995674

>  <number_of_rotatable_bonds>  (1) 
6

>  <IC50_NM>  (1) 
70

>  <charge>  (1) 
0

$$$$
