3RAH
     RDKit          3D

 46 49  0  0  1  0  0  0  0  0999 V2000
   65.3109  154.4049  -50.2204 N   0  0  0  0  0  0  0  0  0  0  0  0
   63.7793  155.0068  -48.5506 N   0  0  0  0  0  0  0  0  0  0  0  0
   66.9795  153.4550  -51.5603 N   0  0  0  0  0  0  0  0  0  0  0  0
   68.1891  149.2989  -45.8127 C   0  0  0  0  0  0  0  0  0  0  0  0
   68.1034  148.8032  -47.1369 C   0  0  0  0  0  0  0  0  0  0  0  0
   68.0434  149.6604  -48.1936 C   0  0  0  0  0  0  0  0  0  0  0  0
   68.1347  151.5603  -46.7193 C   0  0  0  0  0  0  0  0  0  0  0  0
   68.2374  150.6968  -45.6031 C   0  0  0  0  0  0  0  0  0  0  0  0
   68.2341  148.4335  -44.6879 C   0  0  0  0  0  0  0  0  0  0  0  0
   68.3482  148.9461  -43.4284 C   0  0  0  0  0  0  0  0  0  0  0  0
   68.4356  150.3417  -43.2221 C   0  0  0  0  0  0  0  0  0  0  0  0
   68.3796  151.1939  -44.2849 C   0  0  0  0  0  0  0  0  0  0  0  0
   68.0191  151.0565  -47.9859 C   0  0  0  0  0  0  0  0  0  0  0  0
   67.8345  151.9099  -49.2060 C   0  0  0  0  0  0  0  0  0  0  0  0
   66.7983  152.8873  -49.2231 C   0  0  0  0  0  0  0  0  0  0  0  0
   66.3933  153.5811  -50.3716 C   0  0  0  0  0  0  0  0  0  0  0  0
   64.8142  154.3033  -48.9987 C   0  0  0  0  0  0  0  0  0  0  0  0
   63.2200  154.8596  -47.2145 C   0  0  0  0  0  0  0  0  0  0  0  0
   62.2199  153.7079  -47.0986 C   0  0  0  0  0  0  0  0  0  0  0  0
   61.6871  153.6188  -45.6717 C   0  0  0  0  0  0  0  0  0  0  0  0
   61.0211  154.9224  -45.2471 C   0  0  0  0  0  0  0  0  0  0  0  0
   61.9924  156.0912  -45.3876 C   0  0  0  0  0  0  0  0  0  0  0  0
   62.5679  156.1740  -46.7970 C   0  0  0  0  0  0  0  0  0  0  0  0
   68.5309  151.6902  -50.2041 O   0  0  0  0  0  0  0  0  0  0  0  0
   65.6274  153.1696  -47.9578 S   0  0  0  0  0  0  0  0  0  0  0  0
   68.0810  147.7323  -47.2720 H   0  0  0  0  0  0  0  0  0  0  0  0
   67.9909  149.2964  -49.2063 H   0  0  0  0  0  0  0  0  0  0  0  0
   63.3114  155.6408  -49.1976 H   0  0  0  0  0  0  0  0  0  0  0  0
   68.1625  152.6245  -46.5420 H   0  0  0  0  0  0  0  0  0  0  0  0
   66.7312  154.0239  -52.3579 H   0  0  0  0  0  0  0  0  0  0  0  0
   67.7807  152.8417  -51.5813 H   0  0  0  0  0  0  0  0  0  0  0  0
   68.1677  147.3690  -44.8615 H   0  0  0  0  0  0  0  0  0  0  0  0
   68.3834  148.2832  -42.5749 H   0  0  0  0  0  0  0  0  0  0  0  0
   68.5648  150.7215  -42.2209 H   0  0  0  0  0  0  0  0  0  0  0  0
   68.4719  152.2589  -44.1310 H   0  0  0  0  0  0  0  0  0  0  0  0
   64.0479  154.6567  -46.5329 H   0  0  0  0  0  0  0  0  0  0  0  0
   62.6877  152.7695  -47.3909 H   0  0  0  0  0  0  0  0  0  0  0  0
   61.4033  153.8915  -47.8004 H   0  0  0  0  0  0  0  0  0  0  0  0
   62.5177  153.4032  -44.9938 H   0  0  0  0  0  0  0  0  0  0  0  0
   61.0056  152.7819  -45.5592 H   0  0  0  0  0  0  0  0  0  0  0  0
   60.6657  154.8432  -44.2192 H   0  0  0  0  0  0  0  0  0  0  0  0
   60.1465  155.1091  -45.8767 H   0  0  0  0  0  0  0  0  0  0  0  0
   61.5004  157.0291  -45.1333 H   0  0  0  0  0  0  0  0  0  0  0  0
   62.8114  155.9598  -44.6743 H   0  0  0  0  0  0  0  0  0  0  0  0
   61.7803  156.4119  -47.5145 H   0  0  0  0  0  0  0  0  0  0  0  0
   63.3083  156.9687  -46.8551 H   0  0  0  0  0  0  0  0  0  0  0  0
  1 17  2  0
  2 18  1  0
  2 28  1  0
  3 16  1  0
  3 30  1  0
  3 31  1  0
  4  9  1  0
  5  4  2  0
  5 26  1  0
  6  5  1  0
  6 27  1  0
  7  8  2  0
  7 29  1  0
  8  4  1  0
  8 12  1  0
  9 10  2  0
  9 32  1  0
 10 33  1  0
 11 10  1  0
 11 34  1  0
 12 11  2  0
 12 35  1  0
 13  6  2  0
 13  7  1  0
 14 13  1  0
 14 24  2  0
 15 14  1  0
 15 25  1  0
 16  1  1  0
 16 15  2  0
 17  2  1  0
 17 25  1  0
 18 23  1  0
 18 36  1  0
 19 18  1  0
 19 20  1  0
 19 37  1  0
 19 38  1  0
 20 21  1  0
 20 39  1  0
 20 40  1  0
 21 41  1  0
 21 42  1  0
 22 21  1  0
 22 43  1  0
 22 44  1  0
 23 22  1  0
 23 45  1  0
 23 46  1  0
M  END
>  <lm5_entropy_jk>  (1) 
20.76925268888156

>  <number_of_rotatable_bonds>  (1) 
4

>  <IC50_NM>  (1) 
12000

>  <charge>  (1) 
0

$$$$
