3RNI
     RDKit          3D

 39 41  0  0  0  0  0  0  0  0999 V2000
   65.5838  154.4050  -50.3483 N   0  0  0  0  0  0  0  0  0  0  0  0
   64.1043  154.7945  -48.5907 N   0  0  0  0  0  0  0  0  0  0  0  0
   67.2117  153.6577  -51.8683 N   0  0  0  0  0  0  0  0  0  0  0  0
   60.7713  157.6597  -46.0909 N   0  0  0  0  0  0  0  0  0  0  0  0
   67.1934  152.8742  -49.5974 C   0  0  0  0  0  0  0  0  0  0  0  0
   66.6971  153.6553  -50.6411 C   0  0  0  0  0  0  0  0  0  0  0  0
   65.1881  154.1754  -49.1105 C   0  0  0  0  0  0  0  0  0  0  0  0
   68.2856  151.9601  -49.7144 C   0  0  0  0  0  0  0  0  0  0  0  0
   63.4159  154.4984  -47.4029 C   0  0  0  0  0  0  0  0  0  0  0  0
   68.4858  150.8923  -48.6776 C   0  0  0  0  0  0  0  0  0  0  0  0
   62.5755  155.4937  -46.8936 C   0  0  0  0  0  0  0  0  0  0  0  0
   61.8427  155.2393  -45.7499 C   0  0  0  0  0  0  0  0  0  0  0  0
   61.9047  154.0201  -45.0867 C   0  0  0  0  0  0  0  0  0  0  0  0
   62.7282  153.0429  -45.6039 C   0  0  0  0  0  0  0  0  0  0  0  0
   63.4731  153.2676  -46.7518 C   0  0  0  0  0  0  0  0  0  0  0  0
   67.4159  150.1366  -48.2021 C   0  0  0  0  0  0  0  0  0  0  0  0
   67.6207  149.1169  -47.2853 C   0  0  0  0  0  0  0  0  0  0  0  0
   68.9056  148.8460  -46.8370 C   0  0  0  0  0  0  0  0  0  0  0  0
   69.9737  149.5910  -47.3129 C   0  0  0  0  0  0  0  0  0  0  0  0
   69.7714  150.6022  -48.2393 C   0  0  0  0  0  0  0  0  0  0  0  0
   69.0526  152.0200  -50.6788 O   0  0  0  0  0  0  0  0  0  0  0  0
   59.4315  155.8052  -45.0288 O   0  0  0  0  0  0  0  0  0  0  0  0
   61.2406  156.9049  -43.7889 O   0  0  0  0  0  0  0  0  0  0  0  0
   66.1782  153.0803  -48.2034 S   0  0  0  0  0  0  0  0  0  0  0  0
   60.7502  156.4253  -45.0561 S   0  0  0  0  0  0  0  0  0  0  0  0
   63.6129  155.4153  -49.2362 H   0  0  0  0  0  0  0  0  0  0  0  0
   66.8662  154.2413  -52.6163 H   0  0  0  0  0  0  0  0  0  0  0  0
   68.0571  153.1165  -51.9756 H   0  0  0  0  0  0  0  0  0  0  0  0
   60.7749  158.5498  -45.6187 H   0  0  0  0  0  0  0  0  0  0  0  0
   60.1041  157.5317  -46.8501 H   0  0  0  0  0  0  0  0  0  0  0  0
   62.4864  156.4329  -47.4140 H   0  0  0  0  0  0  0  0  0  0  0  0
   61.3138  153.8232  -44.2058 H   0  0  0  0  0  0  0  0  0  0  0  0
   62.7677  152.0788  -45.1243 H   0  0  0  0  0  0  0  0  0  0  0  0
   64.0573  152.4607  -47.1540 H   0  0  0  0  0  0  0  0  0  0  0  0
   66.4183  150.3153  -48.5694 H   0  0  0  0  0  0  0  0  0  0  0  0
   66.7845  148.5371  -46.9241 H   0  0  0  0  0  0  0  0  0  0  0  0
   69.0667  148.0376  -46.1364 H   0  0  0  0  0  0  0  0  0  0  0  0
   70.9754  149.3642  -46.9786 H   0  0  0  0  0  0  0  0  0  0  0  0
   70.6056  151.1669  -48.6273 H   0  0  0  0  0  0  0  0  0  0  0  0
  1  7  2  0
  2  9  1  0
  2 26  1  0
  3  6  1  0
  3 27  1  0
  3 28  1  0
  4 25  1  0
  4 29  1  0
  4 30  1  0
  5 24  1  0
  6  1  1  0
  6  5  2  0
  7  2  1  0
  7 24  1  0
  8  5  1  0
  8 10  1  0
  9 11  2  0
  9 15  1  0
 10 20  1  0
 10 16  2  0
 11 12  1  0
 11 31  1  0
 12 25  1  0
 12 13  2  0
 13 32  1  0
 14 13  1  0
 14 33  1  0
 15 14  2  0
 15 34  1  0
 16 17  1  0
 16 35  1  0
 17 18  2  0
 17 36  1  0
 18 37  1  0
 19 18  1  0
 19 38  1  0
 20 19  2  0
 20 39  1  0
 21  8  2  0
 25 22  2  0
 25 23  2  0
M  END
>  <lm5_entropy_jk>  (1) 
22.397995528352578

>  <number_of_rotatable_bonds>  (1) 
5

>  <IC50_NM>  (1) 
6700

>  <charge>  (1) 
0

$$$$
