3QTQ
     RDKit          3D

 30 31  0  0  1  0  0  0  0  0999 V2000
   65.9048  154.5202  -50.5800 N   0  0  0  0  0  0  0  0  0  0  0  0
   67.3656  153.5710  -52.1117 N   0  0  0  0  0  0  0  0  0  0  0  0
   70.7848  150.1746  -47.5977 N   0  0  0  0  0  0  0  0  0  0  0  0
   64.6336  155.2172  -48.7687 N   0  0  0  0  0  0  0  0  0  0  0  0
   66.9193  153.6517  -50.8646 C   0  0  0  0  0  0  0  0  0  0  0  0
   67.4316  152.9126  -49.7933 C   0  0  0  0  0  0  0  0  0  0  0  0
   68.5148  151.9999  -49.9240 C   0  0  0  0  0  0  0  0  0  0  0  0
   68.9104  151.0970  -48.7941 C   0  0  0  0  0  0  0  0  0  0  0  0
   70.2641  150.9900  -48.5086 C   0  0  0  0  0  0  0  0  0  0  0  0
   69.9115  149.3912  -46.9453 C   0  0  0  0  0  0  0  0  0  0  0  0
   68.5438  149.4125  -47.1596 C   0  0  0  0  0  0  0  0  0  0  0  0
   68.0245  150.2916  -48.0948 C   0  0  0  0  0  0  0  0  0  0  0  0
   65.5734  154.4194  -49.3114 C   0  0  0  0  0  0  0  0  0  0  0  0
   64.0902  155.0681  -47.4301 C   0  0  0  0  0  0  0  0  0  0  0  0
   63.0695  153.9812  -47.2495 C   0  0  0  0  0  0  0  0  0  0  0  0
   62.8736  153.3812  -46.0911 C   0  0  0  0  0  0  0  0  0  0  0  0
   69.1798  151.9421  -50.9618 O   0  0  0  0  0  0  0  0  0  0  0  0
   66.4775  153.2733  -48.3668 S   0  0  0  0  0  0  0  0  0  0  0  0
   66.9361  154.1181  -52.8353 H   0  0  0  0  0  0  0  0  0  0  0  0
   68.1362  152.9429  -52.2729 H   0  0  0  0  0  0  0  0  0  0  0  0
   70.9566  151.6102  -49.0603 H   0  0  0  0  0  0  0  0  0  0  0  0
   70.3322  148.7210  -46.2081 H   0  0  0  0  0  0  0  0  0  0  0  0
   67.8947  148.7422  -46.6088 H   0  0  0  0  0  0  0  0  0  0  0  0
   66.9596  150.3168  -48.2855 H   0  0  0  0  0  0  0  0  0  0  0  0
   64.0451  155.6846  -49.4385 H   0  0  0  0  0  0  0  0  0  0  0  0
   63.6534  156.0270  -47.1551 H   0  0  0  0  0  0  0  0  0  0  0  0
   64.9099  154.9020  -46.7405 H   0  0  0  0  0  0  0  0  0  0  0  0
   62.1200  152.6228  -45.9493 H   0  0  0  0  0  0  0  0  0  0  0  0
   63.4640  153.6184  -45.2162 H   0  0  0  0  0  0  0  0  0  0  0  0
   62.4625  153.7277  -48.1074 H   0  0  0  0  0  0  0  0  0  0  0  0
  1  5  1  0
  1 13  2  0
  2  5  1  0
  2 19  1  0
  2 20  1  0
  3  9  2  0
  3 10  1  0
  4 13  1  0
  4 14  1  0
  4 25  1  0
  5  6  2  0
  6 18  1  0
  7  6  1  0
  7  8  1  0
  7 17  2  0
  8  9  1  0
  8 12  2  0
  9 21  1  0
 10 11  2  0
 10 22  1  0
 11 12  1  0
 11 23  1  0
 12 24  1  0
 13 18  1  0
 14 15  1  0
 14 26  1  0
 14 27  1  0
 15 16  2  0
 15 30  1  0
 16 28  1  0
 16 29  1  0
M  END
>  <lm5_entropy_jk>  (1) 
31.50116356131297

>  <number_of_rotatable_bonds>  (1) 
5

>  <IC50_NM>  (1) 
3100

>  <charge>  (1) 
0

$$$$
