3QU0
     RDKit          3D

 38 40  0  0  0  0  0  0  0  0999 V2000
   65.7981  154.3959  -50.3623 N   0  0  0  0  0  0  0  0  0  0  0  0
   64.4324  154.8023  -48.5346 N   0  0  0  0  0  0  0  0  0  0  0  0
   70.7342  149.7627  -47.8290 N   0  0  0  0  0  0  0  0  0  0  0  0
   67.3389  153.6867  -51.9676 N   0  0  0  0  0  0  0  0  0  0  0  0
   61.7889  152.7526  -42.8048 N   0  0  0  0  0  0  0  0  0  0  0  0
   67.4568  152.8715  -49.7037 C   0  0  0  0  0  0  0  0  0  0  0  0
   66.8949  153.6596  -50.7147 C   0  0  0  0  0  0  0  0  0  0  0  0
   65.4717  154.1650  -49.1069 C   0  0  0  0  0  0  0  0  0  0  0  0
   63.7574  154.5187  -47.3419 C   0  0  0  0  0  0  0  0  0  0  0  0
   68.6033  152.0444  -49.8787 C   0  0  0  0  0  0  0  0  0  0  0  0
   68.9711  150.9780  -48.8800 C   0  0  0  0  0  0  0  0  0  0  0  0
   68.0327  150.1364  -48.2939 C   0  0  0  0  0  0  0  0  0  0  0  0
   68.4610  149.1014  -47.4808 C   0  0  0  0  0  0  0  0  0  0  0  0
   69.8217  148.9617  -47.2724 C   0  0  0  0  0  0  0  0  0  0  0  0
   70.3127  150.7439  -48.6232 C   0  0  0  0  0  0  0  0  0  0  0  0
   63.8178  153.2868  -46.6869 C   0  0  0  0  0  0  0  0  0  0  0  0
   63.0415  153.0621  -45.5666 C   0  0  0  0  0  0  0  0  0  0  0  0
   62.2178  154.0712  -45.0884 C   0  0  0  0  0  0  0  0  0  0  0  0
   62.1407  155.2989  -45.7306 C   0  0  0  0  0  0  0  0  0  0  0  0
   62.9179  155.5214  -46.8489 C   0  0  0  0  0  0  0  0  0  0  0  0
   69.3151  152.1497  -50.8793 O   0  0  0  0  0  0  0  0  0  0  0  0
   59.9713  152.9933  -44.5341 O   0  0  0  0  0  0  0  0  0  0  0  0
   60.6305  154.9054  -43.1564 O   0  0  0  0  0  0  0  0  0  0  0  0
   66.5022  153.0506  -48.2568 S   0  0  0  0  0  0  0  0  0  0  0  0
   61.0358  153.6999  -43.8521 S   0  0  0  0  0  0  0  0  0  0  0  0
   63.9204  155.4282  -49.1552 H   0  0  0  0  0  0  0  0  0  0  0  0
   66.9351  154.2978  -52.6629 H   0  0  0  0  0  0  0  0  0  0  0  0
   68.2072  153.2034  -52.1350 H   0  0  0  0  0  0  0  0  0  0  0  0
   61.9189  151.7574  -43.1029 H   0  0  0  0  0  0  0  0  0  0  0  0
   61.4590  152.8932  -41.8633 H   0  0  0  0  0  0  0  0  0  0  0  0
   66.9785  150.2646  -48.4975 H   0  0  0  0  0  0  0  0  0  0  0  0
   67.7648  148.4139  -47.0264 H   0  0  0  0  0  0  0  0  0  0  0  0
   70.2013  148.1630  -46.6482 H   0  0  0  0  0  0  0  0  0  0  0  0
   71.0622  151.3682  -49.0925 H   0  0  0  0  0  0  0  0  0  0  0  0
   64.4015  152.4748  -47.0823 H   0  0  0  0  0  0  0  0  0  0  0  0
   63.0541  152.0916  -45.0868 H   0  0  0  0  0  0  0  0  0  0  0  0
   61.4586  156.0612  -45.3811 H   0  0  0  0  0  0  0  0  0  0  0  0
   62.8271  156.4509  -47.3894 H   0  0  0  0  0  0  0  0  0  0  0  0
  1  8  2  0
  2  9  1  0
  2 26  1  0
  3 14  2  0
  4  7  1  0
  4 27  1  0
  4 28  1  0
  5 29  1  0
  5 30  1  0
  6 24  1  0
  7  1  1  0
  7  6  2  0
  8  2  1  0
  8 24  1  0
  9 20  1  0
  9 16  2  0
 10  6  1  0
 10 11  1  0
 11 15  2  0
 11 12  1  0
 12 13  2  0
 12 31  1  0
 13 14  1  0
 13 32  1  0
 14 33  1  0
 15  3  1  0
 15 34  1  0
 16 17  1  0
 16 35  1  0
 17 18  2  0
 17 36  1  0
 18 25  1  0
 19 18  1  0
 19 37  1  0
 20 19  2  0
 20 38  1  0
 21 10  2  0
 22 25  2  0
 25 23  2  0
 25  5  1  0
M  END
>  <lm5_entropy_jk>  (1) 
22.397995528352578

>  <number_of_rotatable_bonds>  (1) 
5

>  <IC50_NM>  (1) 
20

>  <charge>  (1) 
0

$$$$
