3R9D
     RDKit          3D

 41 43  0  0  0  0  0  0  0  0999 V2000
   65.8173  154.4427  -50.4914 N   0  0  0  0  0  0  0  0  0  0  0  0
   64.4043  154.9214  -48.6868 N   0  0  0  0  0  0  0  0  0  0  0  0
   68.7201  151.2448  -48.6888 N   0  0  0  0  0  0  0  0  0  0  0  0
   67.3717  153.5777  -52.0463 N   0  0  0  0  0  0  0  0  0  0  0  0
   61.6860  153.0441  -42.7712 N   0  0  0  0  0  0  0  0  0  0  0  0
   67.4712  152.9758  -49.7278 C   0  0  0  0  0  0  0  0  0  0  0  0
   66.9198  153.6661  -50.7896 C   0  0  0  0  0  0  0  0  0  0  0  0
   65.4718  154.2754  -49.2377 C   0  0  0  0  0  0  0  0  0  0  0  0
   63.6615  154.6172  -47.5283 C   0  0  0  0  0  0  0  0  0  0  0  0
   68.5763  152.0509  -49.8041 C   0  0  0  0  0  0  0  0  0  0  0  0
   62.7610  155.5900  -47.0841 C   0  0  0  0  0  0  0  0  0  0  0  0
   61.9724  155.3764  -45.9717 C   0  0  0  0  0  0  0  0  0  0  0  0
   62.0548  154.1778  -45.2749 C   0  0  0  0  0  0  0  0  0  0  0  0
   62.9286  153.1886  -45.7139 C   0  0  0  0  0  0  0  0  0  0  0  0
   63.7235  153.4081  -46.8297 C   0  0  0  0  0  0  0  0  0  0  0  0
   69.7150  150.3151  -48.3842 C   0  0  0  0  0  0  0  0  0  0  0  0
   69.4337  149.4211  -47.3468 C   0  0  0  0  0  0  0  0  0  0  0  0
   70.3664  148.4923  -46.9406 C   0  0  0  0  0  0  0  0  0  0  0  0
   71.6124  148.4528  -47.5514 C   0  0  0  0  0  0  0  0  0  0  0  0
   71.8534  149.3477  -48.5627 C   0  0  0  0  0  0  0  0  0  0  0  0
   70.9552  150.2818  -49.0207 C   0  0  0  0  0  0  0  0  0  0  0  0
   69.3124  151.9947  -50.7826 O   0  0  0  0  0  0  0  0  0  0  0  0
   59.8489  153.1286  -44.3763 O   0  0  0  0  0  0  0  0  0  0  0  0
   60.6190  155.2261  -43.3434 O   0  0  0  0  0  0  0  0  0  0  0  0
   66.5188  153.2578  -48.3053 S   0  0  0  0  0  0  0  0  0  0  0  0
   60.9337  153.9369  -43.8970 S   0  0  0  0  0  0  0  0  0  0  0  0
   73.1098  149.3037  -49.1464 F   0  0  0  0  0  0  0  0  0  0  0  0
   63.9266  155.5400  -49.3295 H   0  0  0  0  0  0  0  0  0  0  0  0
   67.9283  151.1982  -48.0712 H   0  0  0  0  0  0  0  0  0  0  0  0
   67.0802  154.2297  -52.7497 H   0  0  0  0  0  0  0  0  0  0  0  0
   68.2414  153.0738  -52.1454 H   0  0  0  0  0  0  0  0  0  0  0  0
   61.7934  152.0389  -43.0550 H   0  0  0  0  0  0  0  0  0  0  0  0
   62.5307  153.4608  -42.3943 H   0  0  0  0  0  0  0  0  0  0  0  0
   62.6515  156.5064  -47.6399 H   0  0  0  0  0  0  0  0  0  0  0  0
   61.2750  156.1354  -45.6469 H   0  0  0  0  0  0  0  0  0  0  0  0
   62.9730  152.2310  -45.2080 H   0  0  0  0  0  0  0  0  0  0  0  0
   64.3678  152.6085  -47.1565 H   0  0  0  0  0  0  0  0  0  0  0  0
   68.4627  149.4376  -46.8684 H   0  0  0  0  0  0  0  0  0  0  0  0
   70.1233  147.7691  -46.1738 H   0  0  0  0  0  0  0  0  0  0  0  0
   72.3391  147.6962  -47.2828 H   0  0  0  0  0  0  0  0  0  0  0  0
   71.1915  150.9350  -49.8420 H   0  0  0  0  0  0  0  0  0  0  0  0
  1  8  2  0
  2  9  1  0
  2 28  1  0
  3 16  1  0
  3 29  1  0
  4  7  1  0
  4 30  1  0
  4 31  1  0
  5 32  1  0
  5 33  1  0
  6 25  1  0
  7  1  1  0
  7  6  2  0
  8  2  1  0
  8 25  1  0
  9 11  2  0
  9 15  1  0
 10  6  1  0
 10  3  1  0
 11 12  1  0
 11 34  1  0
 12 13  2  0
 12 35  1  0
 13 26  1  0
 14 13  1  0
 14 36  1  0
 15 14  2  0
 15 37  1  0
 16 17  2  0
 17 18  1  0
 17 38  1  0
 18 39  1  0
 19 18  2  0
 19 40  1  0
 20 19  1  0
 21 20  2  0
 21 16  1  0
 21 41  1  0
 22 10  2  0
 23 26  2  0
 26 24  2  0
 26  5  1  0
 27 20  1  0
M  END
>  <lm5_entropy_jk>  (1) 
21.052089499889224

>  <number_of_rotatable_bonds>  (1) 
6

>  <IC50_NM>  (1) 
71000

>  <charge>  (1) 
0

$$$$
