3RPY
     RDKit          3D

 31 32  0  0  0  0  0  0  0  0999 V2000
   68.6470  151.7951  -49.7895 C   0  0  0  0  0  0  0  0  0  0  0  0
   65.8959  154.1294  -50.6386 N   0  0  0  0  0  0  0  0  0  0  0  0
   59.8986  152.7624  -44.6952 O   0  0  0  0  0  0  0  0  0  0  0  0
   66.4426  152.9357  -48.4084 S   0  0  0  0  0  0  0  0  0  0  0  0
   67.6278  153.4073  -52.0462 N   0  0  0  0  0  0  0  0  0  0  0  0
   60.5040  154.9361  -43.7232 O   0  0  0  0  0  0  0  0  0  0  0  0
   60.9373  153.6549  -44.2416 S   0  0  0  0  0  0  0  0  0  0  0  0
   64.3467  154.6042  -48.9772 N   0  0  0  0  0  0  0  0  0  0  0  0
   61.7363  152.8445  -43.1119 N   0  0  0  0  0  0  0  0  0  0  0  0
   67.5002  152.6654  -49.7631 C   0  0  0  0  0  0  0  0  0  0  0  0
   67.0348  153.3838  -50.8550 C   0  0  0  0  0  0  0  0  0  0  0  0
   65.4571  153.9668  -49.4157 C   0  0  0  0  0  0  0  0  0  0  0  0
   63.5866  154.3428  -47.8337 C   0  0  0  0  0  0  0  0  0  0  0  0
   63.5146  153.0784  -47.2428 C   0  0  0  0  0  0  0  0  0  0  0  0
   62.7317  152.8873  -46.1208 C   0  0  0  0  0  0  0  0  0  0  0  0
   62.0120  153.9539  -45.5953 C   0  0  0  0  0  0  0  0  0  0  0  0
   62.0432  155.2025  -46.1935 C   0  0  0  0  0  0  0  0  0  0  0  0
   62.8332  155.3935  -47.3097 C   0  0  0  0  0  0  0  0  0  0  0  0
   69.2951  151.6017  -50.8218 O   0  0  0  0  0  0  0  0  0  0  0  0
   69.0296  151.1944  -48.6176 N   0  0  0  0  0  0  0  0  0  0  0  0
   67.2365  153.9225  -52.8197 H   0  0  0  0  0  0  0  0  0  0  0  0
   68.4182  152.7881  -52.1432 H   0  0  0  0  0  0  0  0  0  0  0  0
   63.9582  155.3240  -49.5879 H   0  0  0  0  0  0  0  0  0  0  0  0
   61.8260  151.8388  -43.3320 H   0  0  0  0  0  0  0  0  0  0  0  0
   62.5672  153.2861  -42.7480 H   0  0  0  0  0  0  0  0  0  0  0  0
   64.0257  152.2380  -47.6799 H   0  0  0  0  0  0  0  0  0  0  0  0
   62.6619  151.9098  -45.6630 H   0  0  0  0  0  0  0  0  0  0  0  0
   61.4361  156.0049  -45.8058 H   0  0  0  0  0  0  0  0  0  0  0  0
   62.8388  156.3437  -47.8157 H   0  0  0  0  0  0  0  0  0  0  0  0
   69.7671  150.5152  -48.6853 H   0  0  0  0  0  0  0  0  0  0  0  0
   68.4130  151.1467  -47.8294 H   0  0  0  0  0  0  0  0  0  0  0  0
  1 10  1  0
  1 20  1  0
  2 12  2  0
  3  7  2  0
  5 11  1  0
  5 21  1  0
  5 22  1  0
  7  6  2  0
  7  9  1  0
  8 13  1  0
  8 23  1  0
  9 24  1  0
  9 25  1  0
 10  4  1  0
 11  2  1  0
 11 10  2  0
 12  8  1  0
 12  4  1  0
 13 18  1  0
 13 14  2  0
 14 15  1  0
 14 26  1  0
 15 16  2  0
 15 27  1  0
 16  7  1  0
 17 16  1  0
 17 28  1  0
 18 17  2  0
 18 29  1  0
 19  1  2  0
 20 30  1  0
 20 31  1  0
M  END
>  <lm5_entropy_jk>  (1) 
19.643205717801273

>  <number_of_rotatable_bonds>  (1) 
4

>  <IC50_NM>  (1) 
4800

>  <charge>  (1) 
0

$$$$
