3RAL
     RDKit          3D

 43 45  0  0  1  0  0  0  0  0999 V2000
   65.8251  154.5319  -50.4148 N   0  0  0  0  0  0  0  0  0  0  0  0
   67.3332  153.6710  -52.0005 N   0  0  0  0  0  0  0  0  0  0  0  0
   64.4870  155.0531  -48.5803 N   0  0  0  0  0  0  0  0  0  0  0  0
   61.6793  153.0349  -42.9446 N   0  0  0  0  0  0  0  0  0  0  0  0
   68.2061  148.8133  -46.8871 C   0  0  0  0  0  0  0  0  0  0  0  0
   69.3957  149.4863  -47.1218 C   0  0  0  0  0  0  0  0  0  0  0  0
   69.4814  150.4796  -48.0958 C   0  0  0  0  0  0  0  0  0  0  0  0
   67.1497  150.1503  -48.5759 C   0  0  0  0  0  0  0  0  0  0  0  0
   67.0814  149.1551  -47.6265 C   0  0  0  0  0  0  0  0  0  0  0  0
   70.4987  148.1479  -45.5246 C   0  0  0  0  0  0  0  0  0  0  0  0
   68.3504  150.8154  -48.8118 C   0  0  0  0  0  0  0  0  0  0  0  0
   68.3560  151.8867  -49.8671 C   0  0  0  0  0  0  0  0  0  0  0  0
   67.3900  152.9326  -49.7209 C   0  0  0  0  0  0  0  0  0  0  0  0
   66.8799  153.7205  -50.7491 C   0  0  0  0  0  0  0  0  0  0  0  0
   65.4913  154.3511  -49.1510 C   0  0  0  0  0  0  0  0  0  0  0  0
   63.7337  154.7419  -47.4430 C   0  0  0  0  0  0  0  0  0  0  0  0
   63.7638  153.5005  -46.8037 C   0  0  0  0  0  0  0  0  0  0  0  0
   62.9455  153.2592  -45.7200 C   0  0  0  0  0  0  0  0  0  0  0  0
   62.0940  154.2579  -45.2694 C   0  0  0  0  0  0  0  0  0  0  0  0
   62.0402  155.4919  -45.8961 C   0  0  0  0  0  0  0  0  0  0  0  0
   62.8653  155.7299  -46.9752 C   0  0  0  0  0  0  0  0  0  0  0  0
   59.8798  153.0732  -44.7129 O   0  0  0  0  0  0  0  0  0  0  0  0
   60.3965  155.1041  -43.4548 O   0  0  0  0  0  0  0  0  0  0  0  0
   69.1029  151.8224  -50.8411 O   0  0  0  0  0  0  0  0  0  0  0  0
   70.5462  149.2373  -46.4274 O   0  0  0  0  0  0  0  0  0  0  0  0
   66.4671  153.2161  -48.2771 S   0  0  0  0  0  0  0  0  0  0  0  0
   60.8895  153.8862  -44.0570 S   0  0  0  0  0  0  0  0  0  0  0  0
   68.1321  148.0239  -46.1550 H   0  0  0  0  0  0  0  0  0  0  0  0
   66.9646  154.2589  -52.7349 H   0  0  0  0  0  0  0  0  0  0  0  0
   68.1487  153.0945  -52.1409 H   0  0  0  0  0  0  0  0  0  0  0  0
   70.4233  150.9765  -48.2713 H   0  0  0  0  0  0  0  0  0  0  0  0
   64.0025  155.6788  -49.2176 H   0  0  0  0  0  0  0  0  0  0  0  0
   66.2739  150.3969  -49.1514 H   0  0  0  0  0  0  0  0  0  0  0  0
   61.8644  152.0431  -43.2424 H   0  0  0  0  0  0  0  0  0  0  0  0
   61.2379  153.1278  -42.0410 H   0  0  0  0  0  0  0  0  0  0  0  0
   66.1486  148.6489  -47.4421 H   0  0  0  0  0  0  0  0  0  0  0  0
   71.5097  148.0439  -45.1615 H   0  0  0  0  0  0  0  0  0  0  0  0
   70.2250  147.2162  -46.0240 H   0  0  0  0  0  0  0  0  0  0  0  0
   69.8119  148.3303  -44.6947 H   0  0  0  0  0  0  0  0  0  0  0  0
   64.3714  152.6949  -47.1718 H   0  0  0  0  0  0  0  0  0  0  0  0
   62.9637  152.2892  -45.2385 H   0  0  0  0  0  0  0  0  0  0  0  0
   61.3467  156.2454  -45.5537 H   0  0  0  0  0  0  0  0  0  0  0  0
   62.7912  156.6639  -47.5039 H   0  0  0  0  0  0  0  0  0  0  0  0
  1 14  1  0
  1 15  2  0
  2 14  1  0
  2 29  1  0
  2 30  1  0
  3 15  1  0
  3 16  1  0
  3 32  1  0
  4 27  1  0
  4 34  1  0
  4 35  1  0
  5  6  2  0
  5  9  1  0
  5 28  1  0
  6  7  1  0
  6 25  1  0
  7 11  2  0
  7 31  1  0
  8  9  2  0
  8 11  1  0
  8 33  1  0
  9 36  1  0
 10 25  1  0
 10 37  1  0
 10 38  1  0
 10 39  1  0
 12 11  1  0
 12 13  1  0
 12 24  2  0
 13 14  2  0
 13 26  1  0
 15 26  1  0
 16 17  2  0
 16 21  1  0
 17 18  1  0
 17 40  1  0
 18 19  2  0
 18 41  1  0
 19 20  1  0
 19 27  1  0
 20 21  2  0
 20 42  1  0
 21 43  1  0
 22 27  2  0
 23 27  2  0
M  END
>  <lm5_entropy_jk>  (1) 
33.50945403317048

>  <number_of_rotatable_bonds>  (1) 
6

>  <IC50_NM>  (1) 
100

>  <charge>  (1) 
0

$$$$
