3RNI
     RDKit          3D

 39 41  0  0  0  0  0  0  0  0999 V2000
   65.7344  154.3886  -50.1670 N   0  0  0  0  0  0  0  0  0  0  0  0
   64.2126  154.7397  -48.4499 N   0  0  0  0  0  0  0  0  0  0  0  0
   67.3336  153.6485  -51.7046 N   0  0  0  0  0  0  0  0  0  0  0  0
   60.8178  157.7544  -45.8557 N   0  0  0  0  0  0  0  0  0  0  0  0
   67.3156  152.8119  -49.4479 C   0  0  0  0  0  0  0  0  0  0  0  0
   66.8245  153.6227  -50.4680 C   0  0  0  0  0  0  0  0  0  0  0  0
   65.3049  154.1146  -48.9480 C   0  0  0  0  0  0  0  0  0  0  0  0
   68.4260  151.9194  -49.5589 C   0  0  0  0  0  0  0  0  0  0  0  0
   63.5816  154.5450  -47.2103 C   0  0  0  0  0  0  0  0  0  0  0  0
   68.6353  150.8715  -48.5046 C   0  0  0  0  0  0  0  0  0  0  0  0
   62.8123  155.5998  -46.7011 C   0  0  0  0  0  0  0  0  0  0  0  0
   62.2239  155.4609  -45.4625 C   0  0  0  0  0  0  0  0  0  0  0  0
   62.3422  154.3064  -44.6972 C   0  0  0  0  0  0  0  0  0  0  0  0
   63.0563  153.2557  -45.2311 C   0  0  0  0  0  0  0  0  0  0  0  0
   63.6538  153.3615  -46.4776 C   0  0  0  0  0  0  0  0  0  0  0  0
   67.5839  150.0764  -48.0580 C   0  0  0  0  0  0  0  0  0  0  0  0
   67.7971  149.1213  -47.0788 C   0  0  0  0  0  0  0  0  0  0  0  0
   69.0649  148.9469  -46.5471 C   0  0  0  0  0  0  0  0  0  0  0  0
   70.1219  149.7213  -47.0032 C   0  0  0  0  0  0  0  0  0  0  0  0
   69.9098  150.6750  -47.9875 C   0  0  0  0  0  0  0  0  0  0  0  0
   69.2226  152.0095  -50.4975 O   0  0  0  0  0  0  0  0  0  0  0  0
   60.1861  156.0781  -44.0639 O   0  0  0  0  0  0  0  0  0  0  0  0
   62.2176  157.5260  -43.8413 O   0  0  0  0  0  0  0  0  0  0  0  0
   66.2594  152.9708  -48.0692 S   0  0  0  0  0  0  0  0  0  0  0  0
   61.3360  156.7499  -44.6581 S   0  0  0  0  0  0  0  0  0  0  0  0
   63.6609  155.2631  -49.1292 H   0  0  0  0  0  0  0  0  0  0  0  0
   66.9401  154.2353  -52.4162 H   0  0  0  0  0  0  0  0  0  0  0  0
   68.1741  153.1100  -51.8442 H   0  0  0  0  0  0  0  0  0  0  0  0
   60.6226  158.6202  -45.3579 H   0  0  0  0  0  0  0  0  0  0  0  0
   59.9356  157.3919  -46.2033 H   0  0  0  0  0  0  0  0  0  0  0  0
   62.6573  156.5077  -47.2588 H   0  0  0  0  0  0  0  0  0  0  0  0
   61.8688  154.2244  -43.7286 H   0  0  0  0  0  0  0  0  0  0  0  0
   63.1405  152.3321  -44.6738 H   0  0  0  0  0  0  0  0  0  0  0  0
   64.1448  152.4902  -46.8712 H   0  0  0  0  0  0  0  0  0  0  0  0
   66.5949  150.1766  -48.4773 H   0  0  0  0  0  0  0  0  0  0  0  0
   66.9751  148.5110  -46.7256 H   0  0  0  0  0  0  0  0  0  0  0  0
   69.2169  148.1978  -45.7802 H   0  0  0  0  0  0  0  0  0  0  0  0
   71.1028  149.5648  -46.5844 H   0  0  0  0  0  0  0  0  0  0  0  0
   70.7172  151.2828  -48.3613 H   0  0  0  0  0  0  0  0  0  0  0  0
  1  7  2  0
  2  9  1  0
  2 26  1  0
  3  6  1  0
  3 27  1  0
  3 28  1  0
  4 25  1  0
  4 29  1  0
  4 30  1  0
  5 24  1  0
  6  1  1  0
  6  5  2  0
  7  2  1  0
  7 24  1  0
  8  5  1  0
  8 10  1  0
  9 11  2  0
  9 15  1  0
 10 20  1  0
 10 16  2  0
 11 12  1  0
 11 31  1  0
 12 25  1  0
 12 13  2  0
 13 32  1  0
 14 13  1  0
 14 33  1  0
 15 14  2  0
 15 34  1  0
 16 17  1  0
 16 35  1  0
 17 18  2  0
 17 36  1  0
 18 37  1  0
 19 18  1  0
 19 38  1  0
 20 19  2  0
 20 39  1  0
 21  8  2  0
 25 22  2  0
 25 23  2  0
M  END
>  <lm5_entropy_jk>  (1) 
22.397995528352578

>  <number_of_rotatable_bonds>  (1) 
5

>  <IC50_NM>  (1) 
6700

>  <charge>  (1) 
0

$$$$
