3QXP
     RDKit          3D

 41 43  0  0  0  0  0  0  0  0999 V2000
   65.6080  154.2002  -50.7831 N   0  0  0  0  0  0  0  0  0  0  0  0
   63.9974  154.7486  -49.1962 N   0  0  0  0  0  0  0  0  0  0  0  0
   67.3566  153.3758  -52.0994 N   0  0  0  0  0  0  0  0  0  0  0  0
   61.1838  153.2064  -43.3382 N   0  0  0  0  0  0  0  0  0  0  0  0
   70.8347  150.9177  -48.9982 N   0  0  0  0  0  0  0  0  0  0  0  0
   67.1095  152.6844  -49.8015 C   0  0  0  0  0  0  0  0  0  0  0  0
   66.7206  153.4104  -50.9343 C   0  0  0  0  0  0  0  0  0  0  0  0
   65.1121  154.0816  -49.5724 C   0  0  0  0  0  0  0  0  0  0  0  0
   63.2013  154.5248  -48.0629 C   0  0  0  0  0  0  0  0  0  0  0  0
   68.1165  151.6816  -49.8304 C   0  0  0  0  0  0  0  0  0  0  0  0
   68.3715  150.7814  -48.6502 C   0  0  0  0  0  0  0  0  0  0  0  0
   69.6541  150.3228  -48.3706 C   0  0  0  0  0  0  0  0  0  0  0  0
   69.8963  149.3162  -47.4527 C   0  0  0  0  0  0  0  0  0  0  0  0
   68.8382  148.7522  -46.7614 C   0  0  0  0  0  0  0  0  0  0  0  0
   67.5481  149.1792  -47.0230 C   0  0  0  0  0  0  0  0  0  0  0  0
   67.3240  150.1774  -47.9612 C   0  0  0  0  0  0  0  0  0  0  0  0
   63.0837  153.2717  -47.4543 C   0  0  0  0  0  0  0  0  0  0  0  0
   62.2715  153.1179  -46.3474 C   0  0  0  0  0  0  0  0  0  0  0  0
   61.5548  154.2045  -45.8603 C   0  0  0  0  0  0  0  0  0  0  0  0
   61.6309  155.4402  -46.4785 C   0  0  0  0  0  0  0  0  0  0  0  0
   62.4574  155.5970  -47.5740 C   0  0  0  0  0  0  0  0  0  0  0  0
   68.7757  151.4501  -50.8504 O   0  0  0  0  0  0  0  0  0  0  0  0
   59.4395  152.9928  -45.0044 O   0  0  0  0  0  0  0  0  0  0  0  0
   59.9290  155.2327  -44.1120 O   0  0  0  0  0  0  0  0  0  0  0  0
   71.7283  150.1393  -49.3498 O   0  0  0  0  0  0  0  0  0  0  0  0
   70.9154  152.1160  -49.0995 O   0  0  0  0  0  0  0  0  0  0  0  0
   66.0139  153.0573  -48.4946 S   0  0  0  0  0  0  0  0  0  0  0  0
   60.4170  153.9511  -44.5434 S   0  0  0  0  0  0  0  0  0  0  0  0
   63.6362  155.4547  -49.8382 H   0  0  0  0  0  0  0  0  0  0  0  0
   67.0119  153.9033  -52.8891 H   0  0  0  0  0  0  0  0  0  0  0  0
   68.1134  152.7135  -52.1689 H   0  0  0  0  0  0  0  0  0  0  0  0
   61.3101  152.2009  -43.5172 H   0  0  0  0  0  0  0  0  0  0  0  0
   61.9966  153.6793  -42.9741 H   0  0  0  0  0  0  0  0  0  0  0  0
   70.9057  148.9675  -47.2993 H   0  0  0  0  0  0  0  0  0  0  0  0
   69.0068  147.9521  -46.0593 H   0  0  0  0  0  0  0  0  0  0  0  0
   66.7150  148.7116  -46.5248 H   0  0  0  0  0  0  0  0  0  0  0  0
   66.3108  150.4576  -48.1915 H   0  0  0  0  0  0  0  0  0  0  0  0
   63.5835  152.4124  -47.8665 H   0  0  0  0  0  0  0  0  0  0  0  0
   62.1681  152.1517  -45.8733 H   0  0  0  0  0  0  0  0  0  0  0  0
   61.0250  156.2583  -46.1237 H   0  0  0  0  0  0  0  0  0  0  0  0
   62.4892  156.5359  -48.0974 H   0  0  0  0  0  0  0  0  0  0  0  0
  1  8  2  0
  2  9  1  0
  2 29  1  0
  3  7  1  0
  3 30  1  0
  3 31  1  0
  4 32  1  0
  4 33  1  0
  5 12  1  0
  6 27  1  0
  7  1  1  0
  7  6  2  0
  8  2  1  0
  8 27  1  0
  9 21  1  0
  9 17  2  0
 10  6  1  0
 10 11  1  0
 11 16  1  0
 11 12  2  0
 12 13  1  0
 13 14  2  0
 13 34  1  0
 14 35  1  0
 15 14  1  0
 15 36  1  0
 16 15  2  0
 16 37  1  0
 17 18  1  0
 17 38  1  0
 18 19  2  0
 18 39  1  0
 19 28  1  0
 20 19  1  0
 20 40  1  0
 21 20  2  0
 21 41  1  0
 22 10  2  0
 23 28  2  0
 25  5  1  0
 26  5  2  0
 28 24  2  0
 28  4  1  0
M  CHG  2   5   1  25  -1
M  END
>  <lm5_entropy_jk>  (1) 
23.933690845995674

>  <number_of_rotatable_bonds>  (1) 
6

>  <IC50_NM>  (1) 
20

>  <charge>  (1) 
0

$$$$
