3RAH
     RDKit          3D

 46 49  0  0  1  0  0  0  0  0999 V2000
   65.6595  154.5494  -50.0069 N   0  0  0  0  0  0  0  0  0  0  0  0
   64.1393  155.1956  -48.3375 N   0  0  0  0  0  0  0  0  0  0  0  0
   67.3055  153.5785  -51.3290 N   0  0  0  0  0  0  0  0  0  0  0  0
   68.6128  149.2927  -45.6138 C   0  0  0  0  0  0  0  0  0  0  0  0
   68.9793  148.9172  -46.9290 C   0  0  0  0  0  0  0  0  0  0  0  0
   68.8219  149.7671  -47.9819 C   0  0  0  0  0  0  0  0  0  0  0  0
   67.9184  151.4310  -46.5150 C   0  0  0  0  0  0  0  0  0  0  0  0
   68.0639  150.5719  -45.4062 C   0  0  0  0  0  0  0  0  0  0  0  0
   68.7521  148.4224  -44.5065 C   0  0  0  0  0  0  0  0  0  0  0  0
   68.3573  148.8146  -43.2628 C   0  0  0  0  0  0  0  0  0  0  0  0
   67.7908  150.0913  -43.0596 C   0  0  0  0  0  0  0  0  0  0  0  0
   67.6424  150.9485  -44.1071 C   0  0  0  0  0  0  0  0  0  0  0  0
   68.2732  151.0555  -47.7803 C   0  0  0  0  0  0  0  0  0  0  0  0
   68.0894  151.9413  -48.9770 C   0  0  0  0  0  0  0  0  0  0  0  0
   67.0266  152.8951  -49.0291 C   0  0  0  0  0  0  0  0  0  0  0  0
   66.6951  153.6637  -50.1463 C   0  0  0  0  0  0  0  0  0  0  0  0
   65.1123  154.4038  -48.8189 C   0  0  0  0  0  0  0  0  0  0  0  0
   63.5450  155.0172  -47.0183 C   0  0  0  0  0  0  0  0  0  0  0  0
   62.5827  153.8376  -46.9057 C   0  0  0  0  0  0  0  0  0  0  0  0
   62.0843  153.7193  -45.4660 C   0  0  0  0  0  0  0  0  0  0  0  0
   61.4006  154.9995  -44.9949 C   0  0  0  0  0  0  0  0  0  0  0  0
   62.3268  156.1979  -45.1685 C   0  0  0  0  0  0  0  0  0  0  0  0
   62.8387  156.3012  -46.6014 C   0  0  0  0  0  0  0  0  0  0  0  0
   68.8788  151.8254  -49.9206 O   0  0  0  0  0  0  0  0  0  0  0  0
   65.7873  153.1631  -47.8248 S   0  0  0  0  0  0  0  0  0  0  0  0
   69.3618  147.9174  -47.0772 H   0  0  0  0  0  0  0  0  0  0  0  0
   69.0776  149.4583  -48.9819 H   0  0  0  0  0  0  0  0  0  0  0  0
   63.5706  155.6660  -49.0183 H   0  0  0  0  0  0  0  0  0  0  0  0
   67.4965  152.3982  -46.3283 H   0  0  0  0  0  0  0  0  0  0  0  0
   66.9496  154.1024  -52.1087 H   0  0  0  0  0  0  0  0  0  0  0  0
   68.0699  152.9252  -51.3947 H   0  0  0  0  0  0  0  0  0  0  0  0
   69.1492  147.4336  -44.6782 H   0  0  0  0  0  0  0  0  0  0  0  0
   68.4577  148.1471  -42.4199 H   0  0  0  0  0  0  0  0  0  0  0  0
   67.4533  150.3637  -42.0709 H   0  0  0  0  0  0  0  0  0  0  0  0
   67.1617  151.9047  -43.9623 H   0  0  0  0  0  0  0  0  0  0  0  0
   64.3708  154.8453  -46.3258 H   0  0  0  0  0  0  0  0  0  0  0  0
   63.0823  152.9163  -47.1982 H   0  0  0  0  0  0  0  0  0  0  0  0
   61.7473  153.9870  -47.5940 H   0  0  0  0  0  0  0  0  0  0  0  0
   62.9344  153.5024  -44.8100 H   0  0  0  0  0  0  0  0  0  0  0  0
   61.4116  152.8712  -45.3658 H   0  0  0  0  0  0  0  0  0  0  0  0
   61.1020  154.8981  -43.9520 H   0  0  0  0  0  0  0  0  0  0  0  0
   60.4904  155.1665  -45.5755 H   0  0  0  0  0  0  0  0  0  0  0  0
   61.8162  157.1186  -44.8912 H   0  0  0  0  0  0  0  0  0  0  0  0
   63.1777  156.0988  -44.4879 H   0  0  0  0  0  0  0  0  0  0  0  0
   61.9998  156.4836  -47.2816 H   0  0  0  0  0  0  0  0  0  0  0  0
   63.5232  157.1380  -46.6846 H   0  0  0  0  0  0  0  0  0  0  0  0
  1 17  2  0
  2 18  1  0
  2 28  1  0
  3 16  1  0
  3 30  1  0
  3 31  1  0
  4  9  1  0
  5  4  2  0
  5 26  1  0
  6  5  1  0
  6 27  1  0
  7  8  2  0
  7 29  1  0
  8  4  1  0
  8 12  1  0
  9 10  2  0
  9 32  1  0
 10 33  1  0
 11 10  1  0
 11 34  1  0
 12 11  2  0
 12 35  1  0
 13  6  2  0
 13  7  1  0
 14 13  1  0
 14 24  2  0
 15 14  1  0
 15 25  1  0
 16  1  1  0
 16 15  2  0
 17  2  1  0
 17 25  1  0
 18 23  1  0
 18 36  1  0
 19 18  1  0
 19 20  1  0
 19 37  1  0
 19 38  1  0
 20 21  1  0
 20 39  1  0
 20 40  1  0
 21 41  1  0
 21 42  1  0
 22 21  1  0
 22 43  1  0
 22 44  1  0
 23 22  1  0
 23 45  1  0
 23 46  1  0
M  END
>  <lm5_entropy_jk>  (1) 
20.76925268888156

>  <number_of_rotatable_bonds>  (1) 
4

>  <IC50_NM>  (1) 
12000

>  <charge>  (1) 
0

$$$$
