3RK7
     RDKit          3D

 37 39  0  0  1  0  0  0  0  0999 V2000
   64.1017  154.6361  -48.9470 N   0  0  0  0  0  0  0  0  0  0  0  0
   65.7343  154.0955  -50.4985 N   0  0  0  0  0  0  0  0  0  0  0  0
   67.5092  153.2942  -51.7926 N   0  0  0  0  0  0  0  0  0  0  0  0
   70.4335  149.7013  -47.0988 N   0  0  0  0  0  0  0  0  0  0  0  0
   60.8321  153.2910  -43.5122 N   0  0  0  0  0  0  0  0  0  0  0  0
   63.3004  154.4813  -47.8053 C   0  0  0  0  0  0  0  0  0  0  0  0
   65.2210  153.9649  -49.2964 C   0  0  0  0  0  0  0  0  0  0  0  0
   66.8772  153.3454  -50.6239 C   0  0  0  0  0  0  0  0  0  0  0  0
   67.2794  152.6441  -49.4795 C   0  0  0  0  0  0  0  0  0  0  0  0
   68.4572  151.8349  -49.4375 C   0  0  0  0  0  0  0  0  0  0  0  0
   68.7364  150.8516  -48.3332 C   0  0  0  0  0  0  0  0  0  0  0  0
   67.7506  150.1127  -47.6891 C   0  0  0  0  0  0  0  0  0  0  0  0
   68.1242  149.1638  -46.7552 C   0  0  0  0  0  0  0  0  0  0  0  0
   69.4743  148.9991  -46.4922 C   0  0  0  0  0  0  0  0  0  0  0  0
   70.0619  150.5914  -48.0199 C   0  0  0  0  0  0  0  0  0  0  0  0
   62.5393  155.5793  -47.4062 C   0  0  0  0  0  0  0  0  0  0  0  0
   61.7080  155.4835  -46.3132 C   0  0  0  0  0  0  0  0  0  0  0  0
   61.6235  154.3056  -45.5790 C   0  0  0  0  0  0  0  0  0  0  0  0
   62.3684  153.2056  -45.9904 C   0  0  0  0  0  0  0  0  0  0  0  0
   63.1916  153.2814  -47.1030 C   0  0  0  0  0  0  0  0  0  0  0  0
   60.7178  154.3058  -44.3935 C   0  0  0  0  0  0  0  0  0  0  0  0
   69.2903  151.9008  -50.3482 O   0  0  0  0  0  0  0  0  0  0  0  0
   59.9227  155.2325  -44.2048 O   0  0  0  0  0  0  0  0  0  0  0  0
   66.1139  152.9328  -48.2100 S   0  0  0  0  0  0  0  0  0  0  0  0
   63.7988  155.3734  -49.5796 H   0  0  0  0  0  0  0  0  0  0  0  0
   67.2069  153.8676  -52.5677 H   0  0  0  0  0  0  0  0  0  0  0  0
   68.3898  152.8017  -51.7865 H   0  0  0  0  0  0  0  0  0  0  0  0
   66.7085  150.2432  -47.9424 H   0  0  0  0  0  0  0  0  0  0  0  0
   67.3866  148.5446  -46.2713 H   0  0  0  0  0  0  0  0  0  0  0  0
   69.7974  148.2555  -45.7759 H   0  0  0  0  0  0  0  0  0  0  0  0
   70.8370  151.1275  -48.5504 H   0  0  0  0  0  0  0  0  0  0  0  0
   62.5720  156.4839  -47.9886 H   0  0  0  0  0  0  0  0  0  0  0  0
   61.0969  156.3205  -46.0198 H   0  0  0  0  0  0  0  0  0  0  0  0
   62.2831  152.2601  -45.4781 H   0  0  0  0  0  0  0  0  0  0  0  0
   63.7118  152.3997  -47.4360 H   0  0  0  0  0  0  0  0  0  0  0  0
   61.0858  152.3594  -43.8153 H   0  0  0  0  0  0  0  0  0  0  0  0
   60.1602  153.3152  -42.7665 H   0  0  0  0  0  0  0  0  0  0  0  0
  1  6  1  0
  1  7  1  0
  1 25  1  0
  2  7  2  0
  2  8  1  0
  3  8  1  0
  3 26  1  0
  3 27  1  0
  4 14  2  0
  4 15  1  0
  5 21  1  0
  5 36  1  0
  5 37  1  0
  6 16  2  0
  6 20  1  0
  7 24  1  0
  8  9  2  0
  9 24  1  0
 10  9  1  0
 10 11  1  0
 10 22  2  0
 11 12  1  0
 11 15  2  0
 12 13  2  0
 12 28  1  0
 13 14  1  0
 13 29  1  0
 14 30  1  0
 15 31  1  0
 16 17  1  0
 16 32  1  0
 17 18  2  0
 17 33  1  0
 18 19  1  0
 18 21  1  0
 19 20  2  0
 19 34  1  0
 20 35  1  0
 21 23  2  0
M  END
>  <lm5_entropy_jk>  (1) 
19.089102203703476

>  <number_of_rotatable_bonds>  (1) 
5

>  <IC50_NM>  (1) 
200

>  <charge>  (1) 
0

$$$$
