3RPV
     RDKit          3D

 41 43  0  0  0  0  0  0  0  0999 V2000
   65.6897  154.4203  -50.5334 N   0  0  0  0  0  0  0  0  0  0  0  0
   64.1906  154.8194  -48.8119 N   0  0  0  0  0  0  0  0  0  0  0  0
   67.3742  153.7645  -52.0124 N   0  0  0  0  0  0  0  0  0  0  0  0
   67.3950  148.7636  -46.4454 N   0  0  0  0  0  0  0  0  0  0  0  0
   61.5569  153.0149  -42.9949 N   0  0  0  0  0  0  0  0  0  0  0  0
   67.3510  152.9638  -49.7386 C   0  0  0  0  0  0  0  0  0  0  0  0
   66.8310  153.7092  -50.8012 C   0  0  0  0  0  0  0  0  0  0  0  0
   65.2856  154.2042  -49.3011 C   0  0  0  0  0  0  0  0  0  0  0  0
   63.4852  154.5616  -47.6324 C   0  0  0  0  0  0  0  0  0  0  0  0
   68.5366  152.1712  -49.8411 C   0  0  0  0  0  0  0  0  0  0  0  0
   68.9126  151.1418  -48.8163 C   0  0  0  0  0  0  0  0  0  0  0  0
   70.2606  150.8283  -48.6912 C   0  0  0  0  0  0  0  0  0  0  0  0
   70.6314  149.8052  -47.8347 C   0  0  0  0  0  0  0  0  0  0  0  0
   69.6916  149.1013  -47.1065 C   0  0  0  0  0  0  0  0  0  0  0  0
   68.3325  149.4176  -47.2147 C   0  0  0  0  0  0  0  0  0  0  0  0
   67.9581  150.4394  -48.0931 C   0  0  0  0  0  0  0  0  0  0  0  0
   63.5132  153.3344  -46.9639 C   0  0  0  0  0  0  0  0  0  0  0  0
   62.7323  153.1460  -45.8398 C   0  0  0  0  0  0  0  0  0  0  0  0
   61.9375  154.1868  -45.3753 C   0  0  0  0  0  0  0  0  0  0  0  0
   61.8797  155.3996  -46.0412 C   0  0  0  0  0  0  0  0  0  0  0  0
   62.6606  155.5845  -47.1632 C   0  0  0  0  0  0  0  0  0  0  0  0
   69.2852  152.3128  -50.8142 O   0  0  0  0  0  0  0  0  0  0  0  0
   59.7316  153.0710  -44.7098 O   0  0  0  0  0  0  0  0  0  0  0  0
   60.3585  155.1172  -43.4987 O   0  0  0  0  0  0  0  0  0  0  0  0
   66.2991  153.1520  -48.3610 S   0  0  0  0  0  0  0  0  0  0  0  0
   60.7758  153.8691  -44.1063 S   0  0  0  0  0  0  0  0  0  0  0  0
   63.7236  155.4656  -49.4544 H   0  0  0  0  0  0  0  0  0  0  0  0
   66.9211  154.2200  -52.7917 H   0  0  0  0  0  0  0  0  0  0  0  0
   68.1970  153.1975  -52.1441 H   0  0  0  0  0  0  0  0  0  0  0  0
   66.4269  148.8769  -46.7026 H   0  0  0  0  0  0  0  0  0  0  0  0
   67.6117  147.7977  -46.2493 H   0  0  0  0  0  0  0  0  0  0  0  0
   61.5509  151.9991  -43.1745 H   0  0  0  0  0  0  0  0  0  0  0  0
   61.3647  153.3197  -42.0559 H   0  0  0  0  0  0  0  0  0  0  0  0
   70.9856  151.3507  -49.2942 H   0  0  0  0  0  0  0  0  0  0  0  0
   71.6704  149.5189  -47.7775 H   0  0  0  0  0  0  0  0  0  0  0  0
   69.9881  148.2848  -46.4623 H   0  0  0  0  0  0  0  0  0  0  0  0
   66.9067  150.6350  -48.2313 H   0  0  0  0  0  0  0  0  0  0  0  0
   64.0813  152.5076  -47.3531 H   0  0  0  0  0  0  0  0  0  0  0  0
   62.7096  152.1857  -45.3436 H   0  0  0  0  0  0  0  0  0  0  0  0
   61.2036  156.1721  -45.7091 H   0  0  0  0  0  0  0  0  0  0  0  0
   62.5893  156.4958  -47.7309 H   0  0  0  0  0  0  0  0  0  0  0  0
  1  8  2  0
  2  9  1  0
  2 27  1  0
  3  7  1  0
  3 28  1  0
  3 29  1  0
  4 30  1  0
  4 31  1  0
  5 32  1  0
  5 33  1  0
  6 25  1  0
  7  1  1  0
  7  6  2  0
  8  2  1  0
  8 25  1  0
  9 21  1  0
  9 17  2  0
 10  6  1  0
 10 11  1  0
 11 12  2  0
 11 16  1  0
 12 13  1  0
 12 34  1  0
 13 14  2  0
 13 35  1  0
 14 36  1  0
 15 14  1  0
 15  4  1  0
 16 15  2  0
 16 37  1  0
 17 18  1  0
 17 38  1  0
 18 19  2  0
 18 39  1  0
 19 26  1  0
 20 19  1  0
 20 40  1  0
 21 20  2  0
 21 41  1  0
 22 10  2  0
 23 26  2  0
 26 24  2  0
 26  5  1  0
M  END
>  <lm5_entropy_jk>  (1) 
21.154920599914565

>  <number_of_rotatable_bonds>  (1) 
5

>  <IC50_NM>  (1) 
70

>  <charge>  (1) 
0

$$$$
