3QTZ
     RDKit          3D

 39 41  0  0  0  0  0  0  0  0999 V2000
   65.8336  154.3656  -50.3117 N   0  0  0  0  0  0  0  0  0  0  0  0
   64.4341  154.8157  -48.5138 N   0  0  0  0  0  0  0  0  0  0  0  0
   67.3965  153.5863  -51.8754 N   0  0  0  0  0  0  0  0  0  0  0  0
   61.7594  152.8231  -42.7852 N   0  0  0  0  0  0  0  0  0  0  0  0
   67.3960  152.7596  -49.6194 C   0  0  0  0  0  0  0  0  0  0  0  0
   66.9055  153.5791  -50.6381 C   0  0  0  0  0  0  0  0  0  0  0  0
   65.4660  154.1427  -49.0643 C   0  0  0  0  0  0  0  0  0  0  0  0
   63.7269  154.5279  -47.3421 C   0  0  0  0  0  0  0  0  0  0  0  0
   68.4363  151.7971  -49.7675 C   0  0  0  0  0  0  0  0  0  0  0  0
   68.6408  150.7552  -48.6993 C   0  0  0  0  0  0  0  0  0  0  0  0
   67.5918  149.9631  -48.2415 C   0  0  0  0  0  0  0  0  0  0  0  0
   67.8165  148.9777  -47.2909 C   0  0  0  0  0  0  0  0  0  0  0  0
   69.0870  148.7854  -46.7702 C   0  0  0  0  0  0  0  0  0  0  0  0
   70.0958  149.5975  -47.2280 C   0  0  0  0  0  0  0  0  0  0  0  0
   69.9195  150.5609  -48.1942 C   0  0  0  0  0  0  0  0  0  0  0  0
   62.8955  155.5378  -46.8527 C   0  0  0  0  0  0  0  0  0  0  0  0
   62.1289  155.3282  -45.7269 C   0  0  0  0  0  0  0  0  0  0  0  0
   62.2009  154.1050  -45.0794 C   0  0  0  0  0  0  0  0  0  0  0  0
   63.0067  153.0826  -45.5592 C   0  0  0  0  0  0  0  0  0  0  0  0
   63.7688  153.2936  -46.6899 C   0  0  0  0  0  0  0  0  0  0  0  0
   69.1599  151.7838  -50.7657 O   0  0  0  0  0  0  0  0  0  0  0  0
   59.9387  153.0782  -44.5211 O   0  0  0  0  0  0  0  0  0  0  0  0
   60.6389  154.9876  -43.1527 O   0  0  0  0  0  0  0  0  0  0  0  0
   66.4274  152.9894  -48.1947 S   0  0  0  0  0  0  0  0  0  0  0  0
   61.0185  153.7647  -43.8408 S   0  0  0  0  0  0  0  0  0  0  0  0
   71.3421  149.4527  -46.6919 F   0  0  0  0  0  0  0  0  0  0  0  0
   63.9488  155.4578  -49.1370 H   0  0  0  0  0  0  0  0  0  0  0  0
   67.0425  154.2006  -52.5937 H   0  0  0  0  0  0  0  0  0  0  0  0
   68.2159  153.0140  -52.0120 H   0  0  0  0  0  0  0  0  0  0  0  0
   61.8761  151.8233  -43.0909 H   0  0  0  0  0  0  0  0  0  0  0  0
   61.4270  152.9685  -41.8451 H   0  0  0  0  0  0  0  0  0  0  0  0
   66.5969  150.0956  -48.6358 H   0  0  0  0  0  0  0  0  0  0  0  0
   67.0028  148.3590  -46.9424 H   0  0  0  0  0  0  0  0  0  0  0  0
   69.2773  148.0150  -46.0389 H   0  0  0  0  0  0  0  0  0  0  0  0
   70.7528  151.1537  -48.5335 H   0  0  0  0  0  0  0  0  0  0  0  0
   62.8121  156.4664  -47.3927 H   0  0  0  0  0  0  0  0  0  0  0  0
   61.4677  156.0986  -45.3586 H   0  0  0  0  0  0  0  0  0  0  0  0
   63.0327  152.1160  -45.0709 H   0  0  0  0  0  0  0  0  0  0  0  0
   64.3377  152.4708  -47.0833 H   0  0  0  0  0  0  0  0  0  0  0  0
  1  7  2  0
  2  8  1  0
  2 27  1  0
  3  6  1  0
  3 28  1  0
  3 29  1  0
  4 30  1  0
  4 31  1  0
  5 24  1  0
  6  1  1  0
  6  5  2  0
  7  2  1  0
  7 24  1  0
  8 16  2  0
  8 20  1  0
  9  5  1  0
  9 10  1  0
 10 15  1  0
 10 11  2  0
 11 12  1  0
 11 32  1  0
 12 13  2  0
 12 33  1  0
 13 34  1  0
 14 26  1  0
 14 13  1  0
 15 14  2  0
 15 35  1  0
 16 17  1  0
 16 36  1  0
 17 18  2  0
 17 37  1  0
 18 25  1  0
 19 18  1  0
 19 38  1  0
 20 19  2  0
 20 39  1  0
 21  9  2  0
 22 25  2  0
 25 23  2  0
 25  4  1  0
M  END
>  <lm5_entropy_jk>  (1) 
22.397995528352578

>  <number_of_rotatable_bonds>  (1) 
5

>  <IC50_NM>  (1) 
50

>  <charge>  (1) 
0

$$$$
