3QTZ
     RDKit          3D

 39 41  0  0  0  0  0  0  0  0999 V2000
   65.9917  154.3080  -50.4321 N   0  0  0  0  0  0  0  0  0  0  0  0
   64.5939  154.7831  -48.6191 N   0  0  0  0  0  0  0  0  0  0  0  0
   67.5621  153.5201  -52.0058 N   0  0  0  0  0  0  0  0  0  0  0  0
   62.0921  152.8577  -42.7959 N   0  0  0  0  0  0  0  0  0  0  0  0
   67.5773  152.7315  -49.7303 C   0  0  0  0  0  0  0  0  0  0  0  0
   67.0622  153.5130  -50.7610 C   0  0  0  0  0  0  0  0  0  0  0  0
   65.6395  154.0983  -49.1847 C   0  0  0  0  0  0  0  0  0  0  0  0
   63.8771  154.4974  -47.4328 C   0  0  0  0  0  0  0  0  0  0  0  0
   68.5943  151.7280  -49.8190 C   0  0  0  0  0  0  0  0  0  0  0  0
   68.7720  150.7846  -48.6479 C   0  0  0  0  0  0  0  0  0  0  0  0
   67.6993  150.0386  -48.1642 C   0  0  0  0  0  0  0  0  0  0  0  0
   67.8823  149.1592  -47.1086 C   0  0  0  0  0  0  0  0  0  0  0  0
   69.1300  149.0024  -46.5247 C   0  0  0  0  0  0  0  0  0  0  0  0
   70.1767  149.7478  -47.0253 C   0  0  0  0  0  0  0  0  0  0  0  0
   70.0298  150.6322  -48.0759 C   0  0  0  0  0  0  0  0  0  0  0  0
   62.9335  155.4445  -47.0230 C   0  0  0  0  0  0  0  0  0  0  0  0
   62.1663  155.2575  -45.8906 C   0  0  0  0  0  0  0  0  0  0  0  0
   62.3337  154.1141  -45.1229 C   0  0  0  0  0  0  0  0  0  0  0  0
   63.2672  153.1664  -45.5122 C   0  0  0  0  0  0  0  0  0  0  0  0
   64.0238  153.3444  -46.6617 C   0  0  0  0  0  0  0  0  0  0  0  0
   69.3211  151.6120  -50.8010 O   0  0  0  0  0  0  0  0  0  0  0  0
   60.1133  153.0220  -44.3847 O   0  0  0  0  0  0  0  0  0  0  0  0
   60.8639  154.9657  -43.0704 O   0  0  0  0  0  0  0  0  0  0  0  0
   66.6354  153.0089  -48.2962 S   0  0  0  0  0  0  0  0  0  0  0  0
   61.1967  153.7699  -43.8044 S   0  0  0  0  0  0  0  0  0  0  0  0
   71.3919  149.6177  -46.4564 F   0  0  0  0  0  0  0  0  0  0  0  0
   64.0286  155.2863  -49.3015 H   0  0  0  0  0  0  0  0  0  0  0  0
   67.1525  154.0846  -52.7454 H   0  0  0  0  0  0  0  0  0  0  0  0
   68.3311  152.9101  -52.2206 H   0  0  0  0  0  0  0  0  0  0  0  0
   62.0949  151.8624  -43.0767 H   0  0  0  0  0  0  0  0  0  0  0  0
   61.8647  153.0088  -41.8304 H   0  0  0  0  0  0  0  0  0  0  0  0
   66.7242  150.1224  -48.6218 H   0  0  0  0  0  0  0  0  0  0  0  0
   67.0455  148.5860  -46.7332 H   0  0  0  0  0  0  0  0  0  0  0  0
   69.2852  148.3026  -45.7137 H   0  0  0  0  0  0  0  0  0  0  0  0
   70.8726  151.2028  -48.4303 H   0  0  0  0  0  0  0  0  0  0  0  0
   62.7639  156.3164  -47.6358 H   0  0  0  0  0  0  0  0  0  0  0  0
   61.4247  155.9889  -45.6090 H   0  0  0  0  0  0  0  0  0  0  0  0
   63.4114  152.2624  -44.9356 H   0  0  0  0  0  0  0  0  0  0  0  0
   64.6872  152.5519  -46.9565 H   0  0  0  0  0  0  0  0  0  0  0  0
  1  7  2  0
  2  8  1  0
  2 27  1  0
  3  6  1  0
  3 28  1  0
  3 29  1  0
  4 30  1  0
  4 31  1  0
  5 24  1  0
  6  1  1  0
  6  5  2  0
  7  2  1  0
  7 24  1  0
  8 16  2  0
  8 20  1  0
  9  5  1  0
  9 10  1  0
 10 15  1  0
 10 11  2  0
 11 12  1  0
 11 32  1  0
 12 13  2  0
 12 33  1  0
 13 34  1  0
 14 26  1  0
 14 13  1  0
 15 14  2  0
 15 35  1  0
 16 17  1  0
 16 36  1  0
 17 18  2  0
 17 37  1  0
 18 25  1  0
 19 18  1  0
 19 38  1  0
 20 19  2  0
 20 39  1  0
 21  9  2  0
 22 25  2  0
 25 23  2  0
 25  4  1  0
M  END
>  <lm5_entropy_jk>  (1) 
22.397995528352578

>  <number_of_rotatable_bonds>  (1) 
5

>  <IC50_NM>  (1) 
50

>  <charge>  (1) 
0

$$$$
