3R9D
     RDKit          3D

 41 43  0  0  0  0  0  0  0  0999 V2000
   65.4926  154.4242  -50.5541 N   0  0  0  0  0  0  0  0  0  0  0  0
   63.9337  154.8973  -48.9141 N   0  0  0  0  0  0  0  0  0  0  0  0
   68.5952  151.5043  -48.5224 N   0  0  0  0  0  0  0  0  0  0  0  0
   67.2215  153.7275  -51.9529 N   0  0  0  0  0  0  0  0  0  0  0  0
   61.1020  153.4164  -43.0238 N   0  0  0  0  0  0  0  0  0  0  0  0
   67.1663  153.0753  -49.6333 C   0  0  0  0  0  0  0  0  0  0  0  0
   66.6661  153.7353  -50.7470 C   0  0  0  0  0  0  0  0  0  0  0  0
   65.0557  154.2726  -49.3280 C   0  0  0  0  0  0  0  0  0  0  0  0
   63.1814  154.6952  -47.7519 C   0  0  0  0  0  0  0  0  0  0  0  0
   68.3364  152.2372  -49.6622 C   0  0  0  0  0  0  0  0  0  0  0  0
   62.3781  155.7515  -47.3250 C   0  0  0  0  0  0  0  0  0  0  0  0
   61.5545  155.6068  -46.2275 C   0  0  0  0  0  0  0  0  0  0  0  0
   61.5478  154.4002  -45.5421 C   0  0  0  0  0  0  0  0  0  0  0  0
   62.3410  153.3387  -45.9571 C   0  0  0  0  0  0  0  0  0  0  0  0
   63.1550  153.4811  -47.0638 C   0  0  0  0  0  0  0  0  0  0  0  0
   69.5877  150.5277  -48.3489 C   0  0  0  0  0  0  0  0  0  0  0  0
   69.3708  149.5807  -47.3463 C   0  0  0  0  0  0  0  0  0  0  0  0
   70.3023  148.5900  -47.1095 C   0  0  0  0  0  0  0  0  0  0  0  0
   71.4652  148.5196  -47.8649 C   0  0  0  0  0  0  0  0  0  0  0  0
   71.6449  149.4698  -48.8469 C   0  0  0  0  0  0  0  0  0  0  0  0
   70.7511  150.4848  -49.1158 C   0  0  0  0  0  0  0  0  0  0  0  0
   69.0621  152.1668  -50.6537 O   0  0  0  0  0  0  0  0  0  0  0  0
   59.4459  153.1237  -44.7744 O   0  0  0  0  0  0  0  0  0  0  0  0
   59.8379  155.3913  -43.8628 O   0  0  0  0  0  0  0  0  0  0  0  0
   66.0645  153.2926  -48.3040 S   0  0  0  0  0  0  0  0  0  0  0  0
   60.3658  154.1162  -44.2755 S   0  0  0  0  0  0  0  0  0  0  0  0
   72.7690  149.3832  -49.6117 F   0  0  0  0  0  0  0  0  0  0  0  0
   63.5269  155.5472  -49.5874 H   0  0  0  0  0  0  0  0  0  0  0  0
   67.8804  151.4996  -47.8170 H   0  0  0  0  0  0  0  0  0  0  0  0
   66.8071  154.2031  -52.7409 H   0  0  0  0  0  0  0  0  0  0  0  0
   68.0687  153.1951  -52.0617 H   0  0  0  0  0  0  0  0  0  0  0  0
   61.2920  152.4262  -43.1938 H   0  0  0  0  0  0  0  0  0  0  0  0
   61.8615  153.9594  -42.6428 H   0  0  0  0  0  0  0  0  0  0  0  0
   62.3754  156.6694  -47.8916 H   0  0  0  0  0  0  0  0  0  0  0  0
   60.8972  156.4051  -45.9238 H   0  0  0  0  0  0  0  0  0  0  0  0
   62.2803  152.3905  -45.4393 H   0  0  0  0  0  0  0  0  0  0  0  0
   63.7220  152.6351  -47.4149 H   0  0  0  0  0  0  0  0  0  0  0  0
   68.4509  149.5979  -46.7775 H   0  0  0  0  0  0  0  0  0  0  0  0
   70.0958  147.8360  -46.3649 H   0  0  0  0  0  0  0  0  0  0  0  0
   72.1512  147.6852  -47.7573 H   0  0  0  0  0  0  0  0  0  0  0  0
   70.9386  151.1875  -49.9088 H   0  0  0  0  0  0  0  0  0  0  0  0
  1  8  2  0
  2  9  1  0
  2 28  1  0
  3 16  1  0
  3 29  1  0
  4  7  1  0
  4 30  1  0
  4 31  1  0
  5 32  1  0
  5 33  1  0
  6 25  1  0
  7  1  1  0
  7  6  2  0
  8  2  1  0
  8 25  1  0
  9 11  2  0
  9 15  1  0
 10  6  1  0
 10  3  1  0
 11 12  1  0
 11 34  1  0
 12 13  2  0
 12 35  1  0
 13 26  1  0
 14 13  1  0
 14 36  1  0
 15 14  2  0
 15 37  1  0
 16 17  2  0
 17 18  1  0
 17 38  1  0
 18 39  1  0
 19 18  2  0
 19 40  1  0
 20 19  1  0
 21 20  2  0
 21 16  1  0
 21 41  1  0
 22 10  2  0
 23 26  2  0
 26 24  2  0
 26  5  1  0
 27 20  1  0
M  END
>  <lm5_entropy_jk>  (1) 
21.052089499889224

>  <number_of_rotatable_bonds>  (1) 
6

>  <IC50_NM>  (1) 
71000

>  <charge>  (1) 
0

$$$$
