3R9D
     RDKit          3D

 41 43  0  0  0  0  0  0  0  0999 V2000
   65.4614  154.4238  -50.4990 N   0  0  0  0  0  0  0  0  0  0  0  0
   63.8556  154.8546  -48.8952 N   0  0  0  0  0  0  0  0  0  0  0  0
   68.5172  151.4609  -48.4675 N   0  0  0  0  0  0  0  0  0  0  0  0
   67.2255  153.7647  -51.8712 N   0  0  0  0  0  0  0  0  0  0  0  0
   60.9491  153.3269  -43.0601 N   0  0  0  0  0  0  0  0  0  0  0  0
   67.1288  153.0819  -49.5594 C   0  0  0  0  0  0  0  0  0  0  0  0
   66.6465  153.7518  -50.6753 C   0  0  0  0  0  0  0  0  0  0  0  0
   64.9940  154.2462  -49.2878 C   0  0  0  0  0  0  0  0  0  0  0  0
   63.0695  154.6296  -47.7594 C   0  0  0  0  0  0  0  0  0  0  0  0
   68.2931  152.2353  -49.5850 C   0  0  0  0  0  0  0  0  0  0  0  0
   62.2406  155.6711  -47.3454 C   0  0  0  0  0  0  0  0  0  0  0  0
   61.3942  155.5084  -46.2677 C   0  0  0  0  0  0  0  0  0  0  0  0
   61.3890  154.2985  -45.5869 C   0  0  0  0  0  0  0  0  0  0  0  0
   62.2052  153.2505  -45.9927 C   0  0  0  0  0  0  0  0  0  0  0  0
   63.0416  153.4106  -47.0812 C   0  0  0  0  0  0  0  0  0  0  0  0
   69.5077  150.4845  -48.2897 C   0  0  0  0  0  0  0  0  0  0  0  0
   69.2960  149.5559  -47.2684 C   0  0  0  0  0  0  0  0  0  0  0  0
   70.2217  148.5617  -47.0255 C   0  0  0  0  0  0  0  0  0  0  0  0
   71.3752  148.4695  -47.7929 C   0  0  0  0  0  0  0  0  0  0  0  0
   71.5495  149.4010  -48.7930 C   0  0  0  0  0  0  0  0  0  0  0  0
   70.6615  150.4186  -49.0698 C   0  0  0  0  0  0  0  0  0  0  0  0
   69.0413  152.1909  -50.5616 O   0  0  0  0  0  0  0  0  0  0  0  0
   59.2900  153.0016  -44.8060 O   0  0  0  0  0  0  0  0  0  0  0  0
   59.6672  155.2833  -43.9165 O   0  0  0  0  0  0  0  0  0  0  0  0
   65.9884  153.2590  -48.2567 S   0  0  0  0  0  0  0  0  0  0  0  0
   60.2022  154.0113  -44.3171 S   0  0  0  0  0  0  0  0  0  0  0  0
   72.6650  149.2931  -49.5691 F   0  0  0  0  0  0  0  0  0  0  0  0
   63.4753  155.5236  -49.5656 H   0  0  0  0  0  0  0  0  0  0  0  0
   67.8023  151.4619  -47.7625 H   0  0  0  0  0  0  0  0  0  0  0  0
   66.7932  154.1965  -52.6750 H   0  0  0  0  0  0  0  0  0  0  0  0
   68.0664  153.2210  -51.9738 H   0  0  0  0  0  0  0  0  0  0  0  0
   61.1716  152.3425  -43.2263 H   0  0  0  0  0  0  0  0  0  0  0  0
   61.6892  153.8924  -42.6726 H   0  0  0  0  0  0  0  0  0  0  0  0
   62.2432  156.5946  -47.9030 H   0  0  0  0  0  0  0  0  0  0  0  0
   60.7210  156.2967  -45.9735 H   0  0  0  0  0  0  0  0  0  0  0  0
   62.1515  152.3004  -45.4776 H   0  0  0  0  0  0  0  0  0  0  0  0
   63.6316  152.5758  -47.4208 H   0  0  0  0  0  0  0  0  0  0  0  0
   68.3841  149.5923  -46.6879 H   0  0  0  0  0  0  0  0  0  0  0  0
   70.0189  147.8216  -46.2662 H   0  0  0  0  0  0  0  0  0  0  0  0
   72.0597  147.6345  -47.6838 H   0  0  0  0  0  0  0  0  0  0  0  0
   70.8461  151.1066  -49.8758 H   0  0  0  0  0  0  0  0  0  0  0  0
  1  8  2  0
  2  9  1  0
  2 28  1  0
  3 16  1  0
  3 29  1  0
  4  7  1  0
  4 30  1  0
  4 31  1  0
  5 32  1  0
  5 33  1  0
  6 25  1  0
  7  1  1  0
  7  6  2  0
  8  2  1  0
  8 25  1  0
  9 11  2  0
  9 15  1  0
 10  6  1  0
 10  3  1  0
 11 12  1  0
 11 34  1  0
 12 13  2  0
 12 35  1  0
 13 26  1  0
 14 13  1  0
 14 36  1  0
 15 14  2  0
 15 37  1  0
 16 17  2  0
 17 18  1  0
 17 38  1  0
 18 39  1  0
 19 18  2  0
 19 40  1  0
 20 19  1  0
 21 20  2  0
 21 16  1  0
 21 41  1  0
 22 10  2  0
 23 26  2  0
 26 24  2  0
 26  5  1  0
 27 20  1  0
M  END
>  <lm5_entropy_jk>  (1) 
21.052089499889224

>  <number_of_rotatable_bonds>  (1) 
6

>  <IC50_NM>  (1) 
71000

>  <charge>  (1) 
0

$$$$
