3QU0
     RDKit          3D

 38 40  0  0  0  0  0  0  0  0999 V2000
   65.8947  154.3939  -50.5299 N   0  0  0  0  0  0  0  0  0  0  0  0
   64.5960  154.8702  -48.6516 N   0  0  0  0  0  0  0  0  0  0  0  0
   70.9264  150.1542  -47.7014 N   0  0  0  0  0  0  0  0  0  0  0  0
   67.4034  153.6184  -52.1674 N   0  0  0  0  0  0  0  0  0  0  0  0
   62.1705  152.8380  -42.8277 N   0  0  0  0  0  0  0  0  0  0  0  0
   67.5536  152.8593  -49.8980 C   0  0  0  0  0  0  0  0  0  0  0  0
   66.9604  153.6177  -50.9066 C   0  0  0  0  0  0  0  0  0  0  0  0
   65.6178  154.1921  -49.2629 C   0  0  0  0  0  0  0  0  0  0  0  0
   63.8966  154.5596  -47.4611 C   0  0  0  0  0  0  0  0  0  0  0  0
   68.6166  151.9219  -50.0711 C   0  0  0  0  0  0  0  0  0  0  0  0
   69.0500  151.0427  -48.9263 C   0  0  0  0  0  0  0  0  0  0  0  0
   68.1687  150.2392  -48.2144 C   0  0  0  0  0  0  0  0  0  0  0  0
   68.6910  149.3899  -47.2523 C   0  0  0  0  0  0  0  0  0  0  0  0
   70.0587  149.3762  -47.0353 C   0  0  0  0  0  0  0  0  0  0  0  0
   70.4060  150.9507  -48.6332 C   0  0  0  0  0  0  0  0  0  0  0  0
   64.0582  153.3921  -46.7166 C   0  0  0  0  0  0  0  0  0  0  0  0
   63.3109  153.1835  -45.5650 C   0  0  0  0  0  0  0  0  0  0  0  0
   62.3775  154.1188  -45.1466 C   0  0  0  0  0  0  0  0  0  0  0  0
   62.1978  155.2777  -45.8873 C   0  0  0  0  0  0  0  0  0  0  0  0
   62.9520  155.4928  -47.0236 C   0  0  0  0  0  0  0  0  0  0  0  0
   69.2215  151.8137  -51.1367 O   0  0  0  0  0  0  0  0  0  0  0  0
   60.1724  153.0018  -44.3907 O   0  0  0  0  0  0  0  0  0  0  0  0
   60.9277  154.9420  -43.0735 O   0  0  0  0  0  0  0  0  0  0  0  0
   66.6905  153.1376  -48.4129 S   0  0  0  0  0  0  0  0  0  0  0  0
   61.2580  153.7526  -43.8187 S   0  0  0  0  0  0  0  0  0  0  0  0
   64.0120  155.3766  -49.3175 H   0  0  0  0  0  0  0  0  0  0  0  0
   66.9705  154.1743  -52.8986 H   0  0  0  0  0  0  0  0  0  0  0  0
   68.1730  153.0154  -52.3998 H   0  0  0  0  0  0  0  0  0  0  0  0
   62.1591  151.8418  -43.1046 H   0  0  0  0  0  0  0  0  0  0  0  0
   61.9652  152.9946  -41.8579 H   0  0  0  0  0  0  0  0  0  0  0  0
   67.1047  150.2457  -48.4232 H   0  0  0  0  0  0  0  0  0  0  0  0
   68.0433  148.7317  -46.6872 H   0  0  0  0  0  0  0  0  0  0  0  0
   70.4854  148.7148  -46.2888 H   0  0  0  0  0  0  0  0  0  0  0  0
   71.1091  151.5672  -49.1811 H   0  0  0  0  0  0  0  0  0  0  0  0
   64.7286  152.6154  -47.0373 H   0  0  0  0  0  0  0  0  0  0  0  0
   63.4599  152.2670  -45.0092 H   0  0  0  0  0  0  0  0  0  0  0  0
   61.4554  155.9984  -45.5813 H   0  0  0  0  0  0  0  0  0  0  0  0
   62.7701  156.3760  -47.6163 H   0  0  0  0  0  0  0  0  0  0  0  0
  1  8  2  0
  2  9  1  0
  2 26  1  0
  3 14  2  0
  4  7  1  0
  4 27  1  0
  4 28  1  0
  5 29  1  0
  5 30  1  0
  6 24  1  0
  7  1  1  0
  7  6  2  0
  8  2  1  0
  8 24  1  0
  9 20  1  0
  9 16  2  0
 10  6  1  0
 10 11  1  0
 11 15  2  0
 11 12  1  0
 12 13  2  0
 12 31  1  0
 13 14  1  0
 13 32  1  0
 14 33  1  0
 15  3  1  0
 15 34  1  0
 16 17  1  0
 16 35  1  0
 17 18  2  0
 17 36  1  0
 18 25  1  0
 19 18  1  0
 19 37  1  0
 20 19  2  0
 20 38  1  0
 21 10  2  0
 22 25  2  0
 25 23  2  0
 25  5  1  0
M  END
>  <lm5_entropy_jk>  (1) 
22.397995528352578

>  <number_of_rotatable_bonds>  (1) 
5

>  <IC50_NM>  (1) 
20

>  <charge>  (1) 
0

$$$$
