3R8Z
     RDKit          3D

 30 31  0  0  1  0  0  0  0  0999 V2000
   65.8065  154.5892  -50.6657 N   0  0  0  0  0  0  0  0  0  0  0  0
   67.3808  153.5611  -52.0705 N   0  0  0  0  0  0  0  0  0  0  0  0
   68.8417  149.3213  -46.3787 N   0  0  0  0  0  0  0  0  0  0  0  0
   64.4866  155.4127  -48.8878 N   0  0  0  0  0  0  0  0  0  0  0  0
   66.8308  153.6909  -50.8560 C   0  0  0  0  0  0  0  0  0  0  0  0
   67.2585  152.9764  -49.7300 C   0  0  0  0  0  0  0  0  0  0  0  0
   68.2613  151.9479  -49.7347 C   0  0  0  0  0  0  0  0  0  0  0  0
   68.4517  151.0711  -48.5231 C   0  0  0  0  0  0  0  0  0  0  0  0
   67.3823  150.4679  -47.8784 C   0  0  0  0  0  0  0  0  0  0  0  0
   67.6199  149.6109  -46.8157 C   0  0  0  0  0  0  0  0  0  0  0  0
   69.8609  149.8643  -47.0259 C   0  0  0  0  0  0  0  0  0  0  0  0
   69.7270  150.7583  -48.0787 C   0  0  0  0  0  0  0  0  0  0  0  0
   65.4050  154.5527  -49.4185 C   0  0  0  0  0  0  0  0  0  0  0  0
   63.9240  155.2673  -47.5473 C   0  0  0  0  0  0  0  0  0  0  0  0
   62.9945  154.1057  -47.3538 C   0  0  0  0  0  0  0  0  0  0  0  0
   62.8594  153.4608  -46.2073 C   0  0  0  0  0  0  0  0  0  0  0  0
   68.9904  151.7411  -50.7044 O   0  0  0  0  0  0  0  0  0  0  0  0
   66.2278  153.4326  -48.3882 S   0  0  0  0  0  0  0  0  0  0  0  0
   67.0669  154.1075  -52.8696 H   0  0  0  0  0  0  0  0  0  0  0  0
   68.1514  152.9303  -52.1974 H   0  0  0  0  0  0  0  0  0  0  0  0
   66.3692  150.6345  -48.1993 H   0  0  0  0  0  0  0  0  0  0  0  0
   66.7956  149.1491  -46.2917 H   0  0  0  0  0  0  0  0  0  0  0  0
   70.8406  149.5817  -46.6656 H   0  0  0  0  0  0  0  0  0  0  0  0
   70.5938  151.1920  -48.5459 H   0  0  0  0  0  0  0  0  0  0  0  0
   63.7950  155.7552  -49.5496 H   0  0  0  0  0  0  0  0  0  0  0  0
   63.3858  156.1894  -47.3298 H   0  0  0  0  0  0  0  0  0  0  0  0
   64.7301  155.2184  -46.8269 H   0  0  0  0  0  0  0  0  0  0  0  0
   62.4003  153.8396  -48.2177 H   0  0  0  0  0  0  0  0  0  0  0  0
   63.4380  153.7272  -45.3327 H   0  0  0  0  0  0  0  0  0  0  0  0
   62.1691  152.6408  -46.0829 H   0  0  0  0  0  0  0  0  0  0  0  0
  1  5  1  0
  1 13  2  0
  2  5  1  0
  2 19  1  0
  2 20  1  0
  3 10  2  0
  3 11  1  0
  4 13  1  0
  4 14  1  0
  4 25  1  0
  5  6  2  0
  6 18  1  0
  7  6  1  0
  7  8  1  0
  7 17  2  0
  8  9  2  0
  8 12  1  0
  9 10  1  0
  9 21  1  0
 10 22  1  0
 11 12  2  0
 11 23  1  0
 12 24  1  0
 13 18  1  0
 14 15  1  0
 14 26  1  0
 14 27  1  0
 15 16  2  0
 15 28  1  0
 16 29  1  0
 16 30  1  0
M  END
>  <lm5_entropy_jk>  (1) 
22.952794734129974

>  <number_of_rotatable_bonds>  (1) 
5

>  <IC50_NM>  (1) 
49000

>  <charge>  (1) 
0

$$$$
